@<TRIPOS>MOLECULE
heptane
23   22    1
SMALL
USER_CHARGES


@<TRIPOS>ATOM
      1 C1         -2.1809   -0.8131   -0.0000 C.3       1 ****       -0.1303 
      2 C2         -1.6298   -2.2459   -0.0000 C.3       1 ****       -0.1718 
      3 H3         -1.7976   -0.2810    0.8725 H         1 ****        0.0637 
      4 H4         -1.7976   -0.2810   -0.8725 H         1 ****        0.0637 
      5 C5         -3.7185   -0.7686    0.0000 C.3       1 ****       -0.1295 
      6 H6         -4.0970   -1.3040   -0.8727 H         1 ****        0.0646 
      7 H7         -4.0970   -1.3040    0.8727 H         1 ****        0.0646 
      8 C8         -4.2727    0.6669    0.0000 C.3       1 ****       -0.1303 
      9 H9         -3.8941    1.2021    0.8728 H         1 ****        0.0641 
     10 H10        -3.8941    1.2021   -0.8728 H         1 ****        0.0641 
     11 C11        -5.8109    0.7116    0.0001 C.3       1 ****       -0.1295 
     12 H12        -6.1898    0.1764   -0.8726 H         1 ****        0.0646 
     13 H13        -6.1897    0.1764    0.8728 H         1 ****        0.0646 
     14 C14        -6.3648    2.1466    0.0001 C.3       1 ****       -0.1303 
     15 H15        -5.9906    2.6852    0.8726 H         1 ****        0.0637 
     16 H16        -5.9907    2.6852   -0.8724 H         1 ****        0.0637 
     17 C17        -7.8993    2.1892    0.0002 C.3       1 ****       -0.1718 
     18 H18        -8.2616    3.2178    0.0002 H         1 ****        0.0587 
     19 H19        -8.3103    1.6954   -0.8811 H         1 ****        0.0587 
     20 H20        -8.3102    1.6954    0.8817 H         1 ****        0.0587 
     21 H21        -1.9587   -2.7978   -0.8814 H         1 ****        0.0587 
     22 H22        -0.5393   -2.2450   -0.0000 H         1 ****        0.0587 
     23 H23        -1.9586   -2.7978    0.8814 H         1 ****        0.0587 
@<TRIPOS>BOND
     1    1    2 1    
     2    1    3 1    
     3    1    4 1    
     4    1    5 1    
     5    2   21 1    
     6    2   22 1    
     7    2   23 1    
     8    5    6 1    
     9    5    7 1    
    10    5    8 1    
    11    8    9 1    
    12    8   10 1    
    13    8   11 1    
    14   11   12 1    
    15   11   13 1    
    16   11   14 1    
    17   14   15 1    
    18   14   16 1    
    19   14   17 1    
    20   17   18 1    
    21   17   19 1    
    22   17   20 1    
@<TRIPOS>SUBSTRUCTURE
     1 ****        1 GROUP             0       ****    0 ROOT    
@<TRIPOS>MOLECULE
heptane
23   22    1
SMALL
USER_CHARGES


@<TRIPOS>ATOM
      1 C1         -2.2344   -1.1024   -0.5020 C.3       1 ****       -0.1303 
      2 C2         -1.9208   -1.5573    0.9324 C.3       1 ****       -0.1718 
      3 H3         -1.6338   -0.2247   -0.7468 H         1 ****        0.0637 
      4 H4         -1.9120   -1.8827   -1.1936 H         1 ****        0.0637 
      5 C5         -3.7242   -0.8008   -0.7549 C.3       1 ****       -0.1295 
      6 H6         -3.8645   -0.6233   -1.8227 H         1 ****        0.0646 
      7 H7         -4.3196   -1.6854   -0.5215 H         1 ****        0.0646 
      8 C8         -4.2638    0.4111    0.0287 C.3       1 ****       -0.1303 
      9 H9         -4.1779    0.2249    1.1001 H         1 ****        0.0641 
     10 H10        -3.6425    1.2839   -0.1798 H         1 ****        0.0641 
     11 C11        -5.7299    0.7334   -0.3105 C.3       1 ****       -0.1295 
     12 H12        -5.8216    0.9252   -1.3812 H         1 ****        0.0646 
     13 H13        -6.3505   -0.1405   -0.1040 H         1 ****        0.0646 
     14 C14        -6.2706    1.9415    0.4732 C.3       1 ****       -0.1303 
     15 H15        -6.1836    1.7535    1.5448 H         1 ****        0.0637 
     16 H16        -5.6542    2.8186    0.2680 H         1 ****        0.0637 
     17 C17        -7.7331    2.2613    0.1336 C.3       1 ****       -0.1718 
     18 H18        -8.3876    1.4201    0.3653 H         1 ****        0.0587 
     19 H19        -8.0875    3.1208    0.7036 H         1 ****        0.0587 
     20 H20        -7.8530    2.4959   -0.9248 H         1 ****        0.0587 
     21 H21        -2.1280   -0.7717    1.6592 H         1 ****        0.0587 
     22 H22        -2.5091   -2.4331    1.2088 H         1 ****        0.0587 
     23 H23        -0.8681   -1.8228    1.0341 H         1 ****        0.0587 
@<TRIPOS>BOND
     1    1    2 1    
     2    1    3 1    
     3    1    4 1    
     4    1    5 1    
     5    2   21 1    
     6    2   22 1    
     7    2   23 1    
     8    5    6 1    
     9    5    7 1    
    10    5    8 1    
    11    8    9 1    
    12    8   10 1    
    13    8   11 1    
    14   11   12 1    
    15   11   13 1    
    16   11   14 1    
    17   14   15 1    
    18   14   16 1    
    19   14   17 1    
    20   17   18 1    
    21   17   19 1    
    22   17   20 1    
@<TRIPOS>SUBSTRUCTURE
     1 ****        1 GROUP             0       ****    0 ROOT    
@<TRIPOS>MOLECULE
heptane
23   22    1
SMALL
USER_CHARGES


@<TRIPOS>ATOM
      1 C1         -6.3552    2.0083    0.0049 C.3       1 ****       -0.1303 
      2 C2         -7.7885    1.7465    0.4884 C.3       1 ****       -0.1718 
      3 H3         -6.3891    2.4917   -0.9730 H         1 ****        0.0637 
      4 H4         -5.8731    2.7192    0.6784 H         1 ****        0.0637 
      5 C5         -5.5136    0.7235   -0.0803 C.3       1 ****       -0.1295 
      6 H6         -5.4929    0.2456    0.9001 H         1 ****        0.0646 
      7 H7         -5.9991    0.0155   -0.7543 H         1 ****        0.0646 
      8 C8         -4.0741    0.9863   -0.5632 C.3       1 ****       -0.1303 
      9 H9         -4.1123    1.5173   -1.5160 H         1 ****        0.0641 
     10 H10        -3.5697    1.6610    0.1309 H         1 ****        0.0641 
     11 C11        -3.2267   -0.2879   -0.7500 C.3       1 ****       -0.1295 
     12 H12        -3.7253   -0.9576   -1.4530 H         1 ****        0.0646 
     13 H13        -2.2848   -0.0088   -1.2258 H         1 ****        0.0646 
     14 C14        -2.9206   -1.0410    0.5583 C.3       1 ****       -0.1303 
     15 H15        -2.4588   -0.3599    1.2751 H         1 ****        0.0637 
     16 H16        -3.8481   -1.3839    1.0185 H         1 ****        0.0637 
     17 C17        -1.9983   -2.2490    0.3423 C.3       1 ****       -0.1718 
     18 H18        -1.8011   -2.7630    1.2837 H         1 ****        0.0587 
     19 H19        -2.4453   -2.9725   -0.3406 H         1 ****        0.0587 
     20 H20        -1.0371   -1.9458   -0.0746 H         1 ****        0.0587 
     21 H21        -7.7966    1.3007    1.4838 H         1 ****        0.0587 
     22 H22        -8.3595    2.6742    0.5385 H         1 ****        0.0587 
     23 H23        -8.3172    1.0703   -0.1846 H         1 ****        0.0587 
@<TRIPOS>BOND
     1    1    2 1    
     2    1    3 1    
     3    1    4 1    
     4    1    5 1    
     5    2   21 1    
     6    2   22 1    
     7    2   23 1    
     8    5    6 1    
     9    5    7 1    
    10    5    8 1    
    11    8    9 1    
    12    8   10 1    
    13    8   11 1    
    14   11   12 1    
    15   11   13 1    
    16   11   14 1    
    17   14   15 1    
    18   14   16 1    
    19   14   17 1    
    20   17   18 1    
    21   17   19 1    
    22   17   20 1    
@<TRIPOS>SUBSTRUCTURE
     1 ****        1 GROUP             0       ****    0 ROOT    
@<TRIPOS>MOLECULE
heptane
23   22    1
SMALL
USER_CHARGES


@<TRIPOS>ATOM
      1 C1         -2.6052   -0.8805    0.4589 C.3       1 ****       -0.1303 
      2 C2         -2.3388   -2.3495    0.1020 C.3       1 ****       -0.1718 
      3 H3         -2.7605   -0.7949    1.5358 H         1 ****        0.0637 
      4 H4         -1.7162   -0.2892    0.2324 H         1 ****        0.0637 
      5 C5         -3.8187   -0.2994   -0.2867 C.3       1 ****       -0.1295 
      6 H6         -3.6604   -0.3868   -1.3631 H         1 ****        0.0646 
      7 H7         -4.6992   -0.9013   -0.0577 H         1 ****        0.0646 
      8 C8         -4.0893    1.1737    0.0742 C.3       1 ****       -0.1303 
      9 H9         -4.2865    1.2614    1.1435 H         1 ****        0.0641 
     10 H10        -3.1816    1.7536   -0.1017 H         1 ****        0.0641 
     11 C11        -5.2399    1.8212   -0.7256 C.3       1 ****       -0.1295 
     12 H12        -5.2987    2.8788   -0.4627 H         1 ****        0.0646 
     13 H13        -4.9869    1.8017   -1.7871 H         1 ****        0.0646 
     14 C14        -6.6313    1.1825   -0.5333 C.3       1 ****       -0.1303 
     15 H15        -7.3429    1.6959   -1.1819 H         1 ****        0.0637 
     16 H16        -6.6204    0.1478   -0.8786 H         1 ****        0.0637 
     17 C17        -7.1539    1.2388    0.9109 C.3       1 ****       -0.1718 
     18 H18        -7.1777    2.2628    1.2853 H         1 ****        0.0587 
     19 H19        -8.1674    0.8413    0.9734 H         1 ****        0.0587 
     20 H20        -6.5327    0.6491    1.5856 H         1 ****        0.0587 
     21 H21        -2.1382   -2.4692   -0.9634 H         1 ****        0.0587 
     22 H22        -1.4743   -2.7330    0.6450 H         1 ****        0.0587 
     23 H23        -3.1922   -2.9803    0.3539 H         1 ****        0.0587 
@<TRIPOS>BOND
     1    1    2 1    
     2    1    3 1    
     3    1    4 1    
     4    1    5 1    
     5    2   21 1    
     6    2   22 1    
     7    2   23 1    
     8    5    6 1    
     9    5    7 1    
    10    5    8 1    
    11    8    9 1    
    12    8   10 1    
    13    8   11 1    
    14   11   12 1    
    15   11   13 1    
    16   11   14 1    
    17   14   15 1    
    18   14   16 1    
    19   14   17 1    
    20   17   18 1    
    21   17   19 1    
    22   17   20 1    
@<TRIPOS>SUBSTRUCTURE
     1 ****        1 GROUP             0       ****    0 ROOT    
@<TRIPOS>MOLECULE
heptane
23   22    1
SMALL
USER_CHARGES


@<TRIPOS>ATOM
      1 C1         -3.1981   -1.0569   -0.4616 C.3       1 ****       -0.1303 
      2 C2         -2.6165   -2.3538    0.1182 C.3       1 ****       -0.1718 
      3 H3         -2.6057   -0.7511   -1.3256 H         1 ****        0.0637 
      4 H4         -4.2027   -1.2578   -0.8363 H         1 ****        0.0637 
      5 C5         -3.2413    0.0863    0.5694 C.3       1 ****       -0.1295 
      6 H6         -2.2405    0.2299    0.9804 H         1 ****        0.0646 
      7 H7         -3.8628   -0.2048    1.4174 H         1 ****        0.0646 
      8 C8         -3.7289    1.4357   -0.0003 C.3       1 ****       -0.1303 
      9 H9         -3.6543    2.1942    0.7808 H         1 ****        0.0641 
     10 H10        -3.0387    1.7582   -0.7817 H         1 ****        0.0641 
     11 C11        -5.1637    1.4460   -0.5696 C.3       1 ****       -0.1295 
     12 H12        -5.3616    2.4374   -0.9810 H         1 ****        0.0646 
     13 H13        -5.2316    0.7627   -1.4172 H         1 ****        0.0646 
     14 C14        -6.2558    1.1066    0.4619 C.3       1 ****       -0.1303 
     15 H15        -6.1107    0.0927    0.8372 H         1 ****        0.0637 
     16 H16        -6.1646    1.7676    1.3254 H         1 ****        0.0637 
     17 C17        -7.6726    1.2228   -0.1176 C.3       1 ****       -0.1718 
     18 H18        -7.8780    2.2358   -0.4656 H         1 ****        0.0587 
     19 H19        -7.8129    0.5450   -0.9606 H         1 ****        0.0587 
     20 H20        -8.4232    0.9741    0.6333 H         1 ****        0.0587 
     21 H21        -3.2083   -2.7115    0.9616 H         1 ****        0.0587 
     22 H22        -2.6013   -3.1447   -0.6324 H         1 ****        0.0587 
     23 H23        -1.5927   -2.2099    0.4656 H         1 ****        0.0587 
@<TRIPOS>BOND
     1    1    2 1    
     2    1    3 1    
     3    1    4 1    
     4    1    5 1    
     5    2   21 1    
     6    2   22 1    
     7    2   23 1    
     8    5    6 1    
     9    5    7 1    
    10    5    8 1    
    11    8    9 1    
    12    8   10 1    
    13    8   11 1    
    14   11   12 1    
    15   11   13 1    
    16   11   14 1    
    17   14   15 1    
    18   14   16 1    
    19   14   17 1    
    20   17   18 1    
    21   17   19 1    
    22   17   20 1    
@<TRIPOS>SUBSTRUCTURE
     1 ****        1 GROUP             0       ****    0 ROOT    
@<TRIPOS>MOLECULE
heptane
23   22    1
SMALL
USER_CHARGES


@<TRIPOS>ATOM
      1 C1         -6.5383    0.9235    0.0505 C.3       1 ****       -0.1303 
      2 C2         -7.7160    1.8957   -0.1066 C.3       1 ****       -0.1718 
      3 H3         -6.7213    0.2726    0.9071 H         1 ****        0.0637 
      4 H4         -6.4996    0.2722   -0.8236 H         1 ****        0.0637 
      5 C5         -5.1910    1.6484    0.2284 C.3       1 ****       -0.1295 
      6 H6         -4.9886    2.2705   -0.6453 H         1 ****        0.0646 
      7 H7         -5.2690    2.3386    1.0704 H         1 ****        0.0646 
      8 C8         -3.9962    0.7071    0.4789 C.3       1 ****       -0.1303 
      9 H9         -3.1237    1.3144    0.7262 H         1 ****        0.0641 
     10 H10        -4.1960    0.1016    1.3640 H         1 ****        0.0641 
     11 C11        -3.6488   -0.2038   -0.7169 C.3       1 ****       -0.1295 
     12 H12        -4.4755   -0.8859   -0.9201 H         1 ****        0.0646 
     13 H13        -3.5442    0.4110   -1.6125 H         1 ****        0.0646 
     14 C14        -2.3553   -1.0199   -0.5295 C.3       1 ****       -0.1303 
     15 H15        -2.1238   -1.5310   -1.4655 H         1 ****        0.0637 
     16 H16        -1.5169   -0.3456   -0.3465 H         1 ****        0.0637 
     17 C17        -2.4314   -2.0643    0.5956 C.3       1 ****       -0.1718 
     18 H18        -2.5627   -1.5965    1.5715 H         1 ****        0.0587 
     19 H19        -3.2613   -2.7548    0.4408 H         1 ****        0.0587 
     20 H20        -1.5159   -2.6550    0.6400 H         1 ****        0.0587 
     21 H21        -7.8211    2.5375    0.7690 H         1 ****        0.0587 
     22 H22        -7.5865    2.5383   -0.9783 H         1 ****        0.0587 
     23 H23        -8.6546    1.3549   -0.2327 H         1 ****        0.0587 
@<TRIPOS>BOND
     1    1    2 1    
     2    1    3 1    
     3    1    4 1    
     4    1    5 1    
     5    2   21 1    
     6    2   22 1    
     7    2   23 1    
     8    5    6 1    
     9    5    7 1    
    10    5    8 1    
    11    8    9 1    
    12    8   10 1    
    13    8   11 1    
    14   11   12 1    
    15   11   13 1    
    16   11   14 1    
    17   14   15 1    
    18   14   16 1    
    19   14   17 1    
    20   17   18 1    
    21   17   19 1    
    22   17   20 1    
@<TRIPOS>SUBSTRUCTURE
     1 ****        1 GROUP             0       ****    0 ROOT    
@<TRIPOS>MOLECULE
heptane
23   22    1
SMALL
USER_CHARGES


@<TRIPOS>ATOM
      1 C1         -2.2194   -0.9069   -0.0111 C.3       1 ****       -0.1303 
      2 C2         -2.7256   -2.0881    0.8322 C.3       1 ****       -0.1718 
      3 H3         -1.7215   -0.1826    0.6358 H         1 ****        0.0637 
      4 H4         -1.4496   -1.2706   -0.6940 H         1 ****        0.0637 
      5 C5         -3.3174   -0.2033   -0.8319 C.3       1 ****       -0.1295 
      6 H6         -2.8418    0.5212   -1.4953 H         1 ****        0.0646 
      7 H7         -3.8042   -0.9287   -1.4864 H         1 ****        0.0646 
      8 C8         -4.3770    0.5195    0.0219 C.3       1 ****       -0.1303 
      9 H9         -4.8903   -0.2061    0.6530 H         1 ****        0.0641 
     10 H10        -3.8828    1.2182    0.6992 H         1 ****        0.0641 
     11 C11        -5.4114    1.2780   -0.8319 C.3       1 ****       -0.1295 
     12 H12        -4.8866    1.9678   -1.4953 H         1 ****        0.0646 
     13 H13        -5.9333    0.5776   -1.4864 H         1 ****        0.0646 
     14 C14        -6.4405    2.0791   -0.0111 C.3       1 ****       -0.1303 
     15 H15        -5.9232    2.7899    0.6357 H         1 ****        0.0637 
     16 H16        -7.0398    2.6837   -0.6939 H         1 ****        0.0637 
     17 C17        -7.3855    1.2084    0.8324 C.3       1 ****       -0.1718 
     18 H18        -7.9155    0.4833    0.2138 H         1 ****        0.0587 
     19 H19        -6.8467    0.6594    1.6048 H         1 ****        0.0587 
     20 H20        -8.1343    1.8220    1.3344 H         1 ****        0.0587 
     21 H21        -3.4227   -1.7630    1.6047 H         1 ****        0.0587 
     22 H22        -3.2330   -2.8292    0.2134 H         1 ****        0.0587 
     23 H23        -1.8977   -2.5900    1.3340 H         1 ****        0.0587 
@<TRIPOS>BOND
     1    1    2 1    
     2    1    3 1    
     3    1    4 1    
     4    1    5 1    
     5    2   21 1    
     6    2   22 1    
     7    2   23 1    
     8    5    6 1    
     9    5    7 1    
    10    5    8 1    
    11    8    9 1    
    12    8   10 1    
    13    8   11 1    
    14   11   12 1    
    15   11   13 1    
    16   11   14 1    
    17   14   15 1    
    18   14   16 1    
    19   14   17 1    
    20   17   18 1    
    21   17   19 1    
    22   17   20 1    
@<TRIPOS>SUBSTRUCTURE
     1 ****        1 GROUP             0       ****    0 ROOT    
@<TRIPOS>MOLECULE
heptane
23   22    1
SMALL
USER_CHARGES


@<TRIPOS>ATOM
      1 C1         -6.5908    1.7328   -0.6322 C.3       1 ****       -0.1303 
      2 C2         -7.5231    1.3230    0.5191 C.3       1 ****       -0.1718 
      3 H3         -6.7865    1.1041   -1.5026 H         1 ****        0.0637 
      4 H4         -6.8423    2.7492   -0.9399 H         1 ****        0.0637 
      5 C5         -5.0921    1.6789   -0.2778 C.3       1 ****       -0.1295 
      6 H6         -4.5257    2.1132   -1.1035 H         1 ****        0.0646 
      7 H7         -4.8986    2.3206    0.5836 H         1 ****        0.0646 
      8 C8         -4.5610    0.2594    0.0004 C.3       1 ****       -0.1303 
      9 H9         -5.0802   -0.1665    0.8600 H         1 ****        0.0641 
     10 H10        -4.7978   -0.3831   -0.8486 H         1 ****        0.0641 
     11 C11        -3.0432    0.2346    0.2649 C.3       1 ****       -0.1295 
     12 H12        -2.5106    0.6197   -0.6065 H         1 ****        0.0646 
     13 H13        -2.8146    0.9238    1.0798 H         1 ****        0.0646 
     14 C14        -2.4901   -1.1560    0.6318 C.3       1 ****       -0.1303 
     15 H15        -1.4452   -1.0510    0.9286 H         1 ****        0.0637 
     16 H16        -3.0097   -1.5388    1.5119 H         1 ****        0.0637 
     17 C17        -2.5766   -2.1860   -0.5058 C.3       1 ****       -0.1718 
     18 H18        -3.6104   -2.4068   -0.7723 H         1 ****        0.0587 
     19 H19        -2.0680   -1.8305   -1.4027 H         1 ****        0.0587 
     20 H20        -2.1096   -3.1271   -0.2140 H         1 ****        0.0587 
     21 H21        -7.3848    0.2782    0.7978 H         1 ****        0.0587 
     22 H22        -7.3495    1.9325    1.4067 H         1 ****        0.0587 
     23 H23        -8.5686    1.4463    0.2348 H         1 ****        0.0587 
@<TRIPOS>BOND
     1    1    2 1    
     2    1    3 1    
     3    1    4 1    
     4    1    5 1    
     5    2   21 1    
     6    2   22 1    
     7    2   23 1    
     8    5    6 1    
     9    5    7 1    
    10    5    8 1    
    11    8    9 1    
    12    8   10 1    
    13    8   11 1    
    14   11   12 1    
    15   11   13 1    
    16   11   14 1    
    17   14   15 1    
    18   14   16 1    
    19   14   17 1    
    20   17   18 1    
    21   17   19 1    
    22   17   20 1    
@<TRIPOS>SUBSTRUCTURE
     1 ****        1 GROUP             0       ****    0 ROOT    
@<TRIPOS>MOLECULE
heptane
23   22    1
SMALL
USER_CHARGES


@<TRIPOS>ATOM
      1 C1         -2.5563   -0.6683    0.2242 C.3       1 ****       -0.1303 
      2 C2         -1.6753   -1.9252    0.2536 C.3       1 ****       -0.1718 
      3 H3         -2.7805   -0.3722    1.2496 H         1 ****        0.0637 
      4 H4         -1.9913    0.1560   -0.2142 H         1 ****        0.0637 
      5 C5         -3.8628   -0.8791   -0.5640 C.3       1 ****       -0.1295 
      6 H6         -3.6165   -1.2396   -1.5644 H         1 ****        0.0646 
      7 H7         -4.4495   -1.6742   -0.1004 H         1 ****        0.0646 
      8 C8         -4.7310    0.3872   -0.7040 C.3       1 ****       -0.1303 
      9 H9         -4.1445    1.1823   -1.1675 H         1 ****        0.0641 
     10 H10        -5.5372    0.1677   -1.4049 H         1 ****        0.0641 
     11 C11        -5.3348    0.8906    0.6237 C.3       1 ****       -0.1295 
     12 H12        -5.9177    0.0938    1.0891 H         1 ****        0.0646 
     13 H13        -4.5297    1.1161    1.3239 H         1 ****        0.0646 
     14 C14        -6.2094    2.1513    0.4801 C.3       1 ****       -0.1303 
     15 H15        -6.4685    2.5131    1.4766 H         1 ****        0.0637 
     16 H16        -5.6293    2.9517    0.0176 H         1 ****        0.0637 
     17 C17        -7.5074    1.9304   -0.3132 C.3       1 ****       -0.1718 
     18 H18        -7.3070    1.6724   -1.3532 H         1 ****        0.0587 
     19 H19        -8.1070    1.1298    0.1213 H         1 ****        0.0587 
     20 H20        -8.1184    2.8336   -0.3167 H         1 ****        0.0587 
     21 H21        -2.1941   -2.7626    0.7219 H         1 ****        0.0587 
     22 H22        -1.3864   -2.2318   -0.7524 H         1 ****        0.0587 
     23 H23        -0.7598   -1.7474    0.8189 H         1 ****        0.0587 
@<TRIPOS>BOND
     1    1    2 1    
     2    1    3 1    
     3    1    4 1    
     4    1    5 1    
     5    2   21 1    
     6    2   22 1    
     7    2   23 1    
     8    5    6 1    
     9    5    7 1    
    10    5    8 1    
    11    8    9 1    
    12    8   10 1    
    13    8   11 1    
    14   11   12 1    
    15   11   13 1    
    16   11   14 1    
    17   14   15 1    
    18   14   16 1    
    19   14   17 1    
    20   17   18 1    
    21   17   19 1    
    22   17   20 1    
@<TRIPOS>SUBSTRUCTURE
     1 ****        1 GROUP             0       ****    0 ROOT    
@<TRIPOS>MOLECULE
heptane
23   22    1
SMALL
USER_CHARGES


@<TRIPOS>ATOM
      1 C1         -6.0549    1.3333    0.8441 C.3       1 ****       -0.1303 
      2 C2         -7.3505    1.1353    0.0417 C.3       1 ****       -0.1718 
      3 H3         -6.2392    2.0674    1.6301 H         1 ****        0.0637 
      4 H4         -5.8014    0.4090    1.3650 H         1 ****        0.0637 
      5 C5         -4.8561    1.8076   -0.0032 C.3       1 ****       -0.1295 
      6 H6         -4.0108    2.0032    0.6579 H         1 ****        0.0646 
      7 H7         -5.0987    2.7754   -0.4455 H         1 ****        0.0646 
      8 C8         -4.4111    0.8467   -1.1290 C.3       1 ****       -0.1303 
      9 H9         -5.2084    0.7695   -1.8695 H         1 ****        0.0641 
     10 H10        -3.5722    1.2971   -1.6622 H         1 ****        0.0641 
     11 C11        -4.0101   -0.5738   -0.6779 C.3       1 ****       -0.1295 
     12 H12        -3.7725   -1.1616   -1.5661 H         1 ****        0.0646 
     13 H13        -4.8668   -1.0719   -0.2216 H         1 ****        0.0646 
     14 C14        -2.8091   -0.6151    0.2851 C.3       1 ****       -0.1303 
     15 H15        -3.0515   -0.0810    1.2049 H         1 ****        0.0637 
     16 H16        -1.9629   -0.0885   -0.1594 H         1 ****        0.0637 
     17 C17        -2.3851   -2.0472    0.6396 C.3       1 ****       -0.1718 
     18 H18        -3.1964   -2.5928    1.1231 H         1 ****        0.0587 
     19 H19        -2.0900   -2.6060   -0.2494 H         1 ****        0.0587 
     20 H20        -1.5360   -2.0451    1.3239 H         1 ****        0.0587 
     21 H21        -8.1776    0.8657    0.6991 H         1 ****        0.0587 
     22 H22        -7.6332    2.0460   -0.4874 H         1 ****        0.0587 
     23 H23        -7.2482    0.3377   -0.6946 H         1 ****        0.0587 
@<TRIPOS>BOND
     1    1    2 1    
     2    1    3 1    
     3    1    4 1    
     4    1    5 1    
     5    2   21 1    
     6    2   22 1    
     7    2   23 1    
     8    5    6 1    
     9    5    7 1    
    10    5    8 1    
    11    8    9 1    
    12    8   10 1    
    13    8   11 1    
    14   11   12 1    
    15   11   13 1    
    16   11   14 1    
    17   14   15 1    
    18   14   16 1    
    19   14   17 1    
    20   17   18 1    
    21   17   19 1    
    22   17   20 1    
@<TRIPOS>SUBSTRUCTURE
     1 ****        1 GROUP             0       ****    0 ROOT    
@<TRIPOS>MOLECULE
heptane
23   22    1
SMALL
USER_CHARGES


@<TRIPOS>ATOM
      1 C1         -2.6198   -0.8704    0.4701 C.3       1 ****       -0.1303 
      2 C2         -3.3396   -2.1900    0.1501 C.3       1 ****       -0.1718 
      3 H3         -2.9157   -0.5234    1.4610 H         1 ****        0.0637 
      4 H4         -1.5483   -1.0651    0.5398 H         1 ****        0.0637 
      5 C5         -2.8515    0.2431   -0.5726 C.3       1 ****       -0.1295 
      6 H6         -2.2474    1.1109   -0.3021 H         1 ****        0.0646 
      7 H7         -2.4623   -0.0899   -1.5363 H         1 ****        0.0646 
      8 C8         -4.3170    0.6915   -0.7567 C.3       1 ****       -0.1303 
      9 H9         -4.3516    1.4349   -1.5549 H         1 ****        0.0641 
     10 H10        -4.9120   -0.1485   -1.1162 H         1 ****        0.0641 
     11 C11        -4.9583    1.2897    0.5123 C.3       1 ****       -0.1295 
     12 H12        -5.0118    0.5316    1.2951 H         1 ****        0.0646 
     13 H13        -4.3080    2.0745    0.9023 H         1 ****        0.0646 
     14 C14        -6.3625    1.8823    0.2868 C.3       1 ****       -0.1303 
     15 H15        -6.6790    2.3920    1.1984 H         1 ****        0.0637 
     16 H16        -6.3180    2.6547   -0.4829 H         1 ****        0.0637 
     17 C17        -7.4282    0.8405   -0.0895 C.3       1 ****       -0.1718 
     18 H18        -7.2114    0.3707   -1.0490 H         1 ****        0.0587 
     19 H19        -7.4953    0.0524    0.6614 H         1 ****        0.0587 
     20 H20        -8.4124    1.3029   -0.1701 H         1 ****        0.0587 
     21 H21        -4.4233   -2.0717    0.1739 H         1 ****        0.0587 
     22 H22        -3.0645   -2.5637   -0.8368 H         1 ****        0.0587 
     23 H23        -3.0818   -2.9600    0.8778 H         1 ****        0.0587 
@<TRIPOS>BOND
     1    1    2 1    
     2    1    3 1    
     3    1    4 1    
     4    1    5 1    
     5    2   21 1    
     6    2   22 1    
     7    2   23 1    
     8    5    6 1    
     9    5    7 1    
    10    5    8 1    
    11    8    9 1    
    12    8   10 1    
    13    8   11 1    
    14   11   12 1    
    15   11   13 1    
    16   11   14 1    
    17   14   15 1    
    18   14   16 1    
    19   14   17 1    
    20   17   18 1    
    21   17   19 1    
    22   17   20 1    
@<TRIPOS>SUBSTRUCTURE
     1 ****        1 GROUP             0       ****    0 ROOT    
@<TRIPOS>MOLECULE
heptane
23   22    1
SMALL
USER_CHARGES


@<TRIPOS>ATOM
      1 C1         -2.5116   -0.8364   -0.5171 C.3       1 ****       -0.1303 
      2 C2         -2.0553   -1.0339    0.9371 C.3       1 ****       -0.1718 
      3 H3         -2.2779    0.1788   -0.8398 H         1 ****        0.0637 
      4 H4         -1.9169   -1.4872   -1.1603 H         1 ****        0.0637 
      5 C5         -4.0054   -1.1406   -0.7562 C.3       1 ****       -0.1295 
      6 H6         -4.2191   -1.0422   -1.8219 H         1 ****        0.0646 
      7 H7         -4.1920   -2.1898   -0.5208 H         1 ****        0.0646 
      8 C8         -5.0043   -0.2698    0.0358 C.3       1 ****       -0.1303 
      9 H9         -6.0090   -0.6399   -0.1713 H         1 ****        0.0641 
     10 H10        -4.8561   -0.4165    1.1065 H         1 ****        0.0641 
     11 C11        -4.9373    1.2347   -0.2988 C.3       1 ****       -0.1295 
     12 H12        -3.9353    1.6062   -0.0809 H         1 ****        0.0646 
     13 H13        -5.0822    1.3814   -1.3705 H         1 ****        0.0646 
     14 C14        -5.9466    2.0993    0.4812 C.3       1 ****       -0.1303 
     15 H15        -5.8025    1.9568    1.5536 H         1 ****        0.0637 
     16 H16        -5.7266    3.1513    0.2915 H         1 ****        0.0637 
     17 C17        -7.4165    1.8334    0.1184 C.3       1 ****       -0.1718 
     18 H18        -7.5911    1.9612   -0.9505 H         1 ****        0.0587 
     19 H19        -7.7237    0.8233    0.3897 H         1 ****        0.0587 
     20 H20        -8.0768    2.5239    0.6441 H         1 ****        0.0587 
     21 H21        -2.5448   -0.3297    1.6103 H         1 ****        0.0587 
     22 H22        -2.2746   -2.0425    1.2890 H         1 ****        0.0587 
     23 H23        -0.9801   -0.8783    1.0317 H         1 ****        0.0587 
@<TRIPOS>BOND
     1    1    2 1    
     2    1    3 1    
     3    1    4 1    
     4    1    5 1    
     5    2   21 1    
     6    2   22 1    
     7    2   23 1    
     8    5    6 1    
     9    5    7 1    
    10    5    8 1    
    11    8    9 1    
    12    8   10 1    
    13    8   11 1    
    14   11   12 1    
    15   11   13 1    
    16   11   14 1    
    17   14   15 1    
    18   14   16 1    
    19   14   17 1    
    20   17   18 1    
    21   17   19 1    
    22   17   20 1    
@<TRIPOS>SUBSTRUCTURE
     1 ****        1 GROUP             0       ****    0 ROOT    
@<TRIPOS>MOLECULE
heptane
23   22    1
SMALL
USER_CHARGES


@<TRIPOS>ATOM
      1 C1         -2.6041   -0.2149   -0.3278 C.3       1 ****       -0.1303 
      2 C2         -2.1369   -1.3895    0.5461 C.3       1 ****       -0.1718 
      3 H3         -2.6066    0.7026    0.2623 H         1 ****        0.0637 
      4 H4         -1.8673   -0.0506   -1.1158 H         1 ****        0.0637 
      5 C5         -3.9858   -0.4266   -0.9804 C.3       1 ****       -0.1295 
      6 H6         -4.1939    0.4100   -1.6488 H         1 ****        0.0646 
      7 H7         -3.9389   -1.3027   -1.6293 H         1 ****        0.0646 
      8 C8         -5.1679   -0.5985   -0.0001 C.3       1 ****       -0.1303 
      9 H9         -6.0789   -0.7696   -0.5752 H         1 ****        0.0641 
     10 H10        -5.0261   -1.5146    0.5747 H         1 ****        0.0641 
     11 C11        -5.3996    0.5731    0.9804 C.3       1 ****       -0.1295 
     12 H12        -6.2414    0.3255    1.6292 H         1 ****        0.0646 
     13 H13        -4.5415    0.6553    1.6491 H         1 ****        0.0646 
     14 C14        -5.6598    1.9467    0.3282 C.3       1 ****       -0.1303 
     15 H15        -5.7503    2.6959    1.1164 H         1 ****        0.0637 
     16 H16        -4.7938    2.2499   -0.2618 H         1 ****        0.0637 
     17 C17        -6.9228    1.9964   -0.5459 C.3       1 ****       -0.1718 
     18 H18        -7.8083    1.7022    0.0186 H         1 ****        0.0587 
     19 H19        -7.0936    3.0043   -0.9254 H         1 ****        0.0587 
     20 H20        -6.8400    1.3348   -1.4085 H         1 ****        0.0587 
     21 H21        -2.7886   -1.5319    1.4084 H         1 ****        0.0587 
     22 H22        -2.1191   -2.3222   -0.0187 H         1 ****        0.0587 
     23 H23        -1.1298   -1.2149    0.9259 H         1 ****        0.0587 
@<TRIPOS>BOND
     1    1    2 1    
     2    1    3 1    
     3    1    4 1    
     4    1    5 1    
     5    2   21 1    
     6    2   22 1    
     7    2   23 1    
     8    5    6 1    
     9    5    7 1    
    10    5    8 1    
    11    8    9 1    
    12    8   10 1    
    13    8   11 1    
    14   11   12 1    
    15   11   13 1    
    16   11   14 1    
    17   14   15 1    
    18   14   16 1    
    19   14   17 1    
    20   17   18 1    
    21   17   19 1    
    22   17   20 1    
@<TRIPOS>SUBSTRUCTURE
     1 ****        1 GROUP             0       ****    0 ROOT    
@<TRIPOS>MOLECULE
heptane
23   22    1
SMALL
USER_CHARGES


@<TRIPOS>ATOM
      1 C1         -2.5710   -0.8174    0.3291 C.3       1 ****       -0.1303 
      2 C2         -2.4291   -2.3435    0.4146 C.3       1 ****       -0.1718 
      3 H3         -2.4631   -0.3903    1.3277 H         1 ****        0.0637 
      4 H4         -1.7492   -0.4130   -0.2645 H         1 ****        0.0637 
      5 C5         -3.9146   -0.3791   -0.2783 C.3       1 ****       -0.1295 
      6 H6         -4.0174   -0.8100   -1.2758 H         1 ****        0.0646 
      7 H7         -4.7278   -0.7993    0.3123 H         1 ****        0.0646 
      8 C8         -4.0539    1.1534   -0.3701 C.3       1 ****       -0.1303 
      9 H9         -3.9047    1.6069    0.6114 H         1 ****        0.0641 
     10 H10        -3.2382    1.5303   -0.9900 H         1 ****        0.0641 
     11 C11        -5.3910    1.6350   -0.9759 C.3       1 ****       -0.1295 
     12 H12        -5.2002    2.5592   -1.5243 H         1 ****        0.0646 
     13 H13        -5.7424    0.9284   -1.7299 H         1 ****        0.0646 
     14 C14        -6.5147    1.9277    0.0408 C.3       1 ****       -0.1303 
     15 H15        -6.1892    2.7065    0.7327 H         1 ****        0.0637 
     16 H16        -7.3647    2.3512   -0.4969 H         1 ****        0.0637 
     17 C17        -7.0027    0.7106    0.8401 C.3       1 ****       -0.1718 
     18 H18        -6.2417    0.3606    1.5374 H         1 ****        0.0587 
     19 H19        -7.8845    0.9623    1.4300 H         1 ****        0.0587 
     20 H20        -7.2708   -0.1177    0.1832 H         1 ****        0.0587 
     21 H21        -1.4685   -2.6228    0.8487 H         1 ****        0.0587 
     22 H22        -3.2111   -2.7806    1.0368 H         1 ****        0.0587 
     23 H23        -2.4911   -2.8041   -0.5721 H         1 ****        0.0587 
@<TRIPOS>BOND
     1    1    2 1    
     2    1    3 1    
     3    1    4 1    
     4    1    5 1    
     5    2   21 1    
     6    2   22 1    
     7    2   23 1    
     8    5    6 1    
     9    5    7 1    
    10    5    8 1    
    11    8    9 1    
    12    8   10 1    
    13    8   11 1    
    14   11   12 1    
    15   11   13 1    
    16   11   14 1    
    17   14   15 1    
    18   14   16 1    
    19   14   17 1    
    20   17   18 1    
    21   17   19 1    
    22   17   20 1    
@<TRIPOS>SUBSTRUCTURE
     1 ****        1 GROUP             0       ****    0 ROOT    
@<TRIPOS>MOLECULE
heptane
23   22    1
SMALL
USER_CHARGES


@<TRIPOS>ATOM
      1 C1         -3.2661   -0.7528    0.6029 C.3       1 ****       -0.1303 
      2 C2         -2.3610   -1.9673    0.8533 C.3       1 ****       -0.1718 
      3 H3         -4.2729   -0.9922    0.9465 H         1 ****        0.0637 
      4 H4         -2.9211    0.0854    1.2108 H         1 ****        0.0637 
      5 C5         -3.3085   -0.3400   -0.8791 C.3       1 ****       -0.1295 
      6 H6         -2.2857   -0.2361   -1.2458 H         1 ****        0.0646 
      7 H7         -3.7500   -1.1464   -1.4674 H         1 ****        0.0646 
      8 C8         -4.0585    0.9775   -1.1708 C.3       1 ****       -0.1303 
      9 H9         -3.5607    1.8103   -0.6708 H         1 ****        0.0641 
     10 H10        -3.9488    1.1846   -2.2368 H         1 ****        0.0641 
     11 C11        -5.5668    0.9734   -0.8363 C.3       1 ****       -0.1295 
     12 H12        -6.0856    1.5937   -1.5695 H         1 ****        0.0646 
     13 H13        -5.9751   -0.0305   -0.9664 H         1 ****        0.0646 
     14 C14        -5.9050    1.5110    0.5679 C.3       1 ****       -0.1303 
     15 H15        -5.3846    0.9384    1.3346 H         1 ****        0.0637 
     16 H16        -5.5403    2.5352    0.6630 H         1 ****        0.0637 
     17 C17        -7.4112    1.4850    0.8626 C.3       1 ****       -0.1718 
     18 H18        -7.8063    0.4693    0.8182 H         1 ****        0.0587 
     19 H19        -7.6213    1.8766    1.8584 H         1 ****        0.0587 
     20 H20        -7.9671    2.0912    0.1463 H         1 ****        0.0587 
     21 H21        -2.3582   -2.2409    1.9089 H         1 ****        0.0587 
     22 H22        -2.6988   -2.8370    0.2884 H         1 ****        0.0587 
     23 H23        -1.3297   -1.7610    0.5642 H         1 ****        0.0587 
@<TRIPOS>BOND
     1    1    2 1    
     2    1    3 1    
     3    1    4 1    
     4    1    5 1    
     5    2   21 1    
     6    2   22 1    
     7    2   23 1    
     8    5    6 1    
     9    5    7 1    
    10    5    8 1    
    11    8    9 1    
    12    8   10 1    
    13    8   11 1    
    14   11   12 1    
    15   11   13 1    
    16   11   14 1    
    17   14   15 1    
    18   14   16 1    
    19   14   17 1    
    20   17   18 1    
    21   17   19 1    
    22   17   20 1    
@<TRIPOS>SUBSTRUCTURE
     1 ****        1 GROUP             0       ****    0 ROOT    
@<TRIPOS>MOLECULE
heptane
23   22    1
SMALL
USER_CHARGES


@<TRIPOS>ATOM
      1 C1         -3.3220   -0.8824    0.4981 C.3       1 ****       -0.1303 
      2 C2         -3.0375   -2.3330    0.0848 C.3       1 ****       -0.1718 
      3 H3         -4.2110   -0.8636    1.1296 H         1 ****        0.0637 
      4 H4         -2.5021   -0.5168    1.1186 H         1 ****        0.0637 
      5 C5         -3.5121    0.0518   -0.7116 C.3       1 ****       -0.1295 
      6 H6         -2.6224   -0.0052   -1.3412 H         1 ****        0.0646 
      7 H7         -4.3277   -0.3039   -1.3412 H         1 ****        0.0646 
      8 C8         -3.7453    1.5298   -0.3394 C.3       1 ****       -0.1303 
      9 H9         -2.8648    1.8959    0.1915 H         1 ****        0.0641 
     10 H10        -3.7899    2.1181   -1.2575 H         1 ****        0.0641 
     11 C11        -4.9972    1.8425    0.5122 C.3       1 ****       -0.1295 
     12 H12        -4.9343    1.3482    1.4827 H         1 ****        0.0646 
     13 H13        -4.9677    2.9085    0.7446 H         1 ****        0.0646 
     14 C14        -6.3560    1.5439   -0.1587 C.3       1 ****       -0.1303 
     15 H15        -7.0898    2.2631    0.2094 H         1 ****        0.0637 
     16 H16        -6.2936    1.7196   -1.2339 H         1 ****        0.0637 
     17 C17        -6.9067    0.1343    0.1150 C.3       1 ****       -0.1718 
     18 H18        -6.2668   -0.6476   -0.2899 H         1 ****        0.0587 
     19 H19        -7.0132   -0.0474    1.1850 H         1 ****        0.0587 
     20 H20        -7.8913    0.0096   -0.3366 H         1 ****        0.0587 
     21 H21        -3.8578   -2.7451   -0.5041 H         1 ****        0.0587 
     22 H22        -2.1279   -2.4051   -0.5126 H         1 ****        0.0587 
     23 H23        -2.9081   -2.9703    0.9603 H         1 ****        0.0587 
@<TRIPOS>BOND
     1    1    2 1    
     2    1    3 1    
     3    1    4 1    
     4    1    5 1    
     5    2   21 1    
     6    2   22 1    
     7    2   23 1    
     8    5    6 1    
     9    5    7 1    
    10    5    8 1    
    11    8    9 1    
    12    8   10 1    
    13    8   11 1    
    14   11   12 1    
    15   11   13 1    
    16   11   14 1    
    17   14   15 1    
    18   14   16 1    
    19   14   17 1    
    20   17   18 1    
    21   17   19 1    
    22   17   20 1    
@<TRIPOS>SUBSTRUCTURE
     1 ****        1 GROUP             0       ****    0 ROOT    
@<TRIPOS>MOLECULE
heptane
23   22    1
SMALL
USER_CHARGES


@<TRIPOS>ATOM
      1 C1         -6.4010    0.8066   -0.4608 C.3       1 ****       -0.1303 
      2 C2         -6.8208    0.8461    1.0174 C.3       1 ****       -0.1718 
      3 H3         -6.1463   -0.2122   -0.7530 H         1 ****        0.0637 
      4 H4         -7.2656    1.0692   -1.0726 H         1 ****        0.0637 
      5 C5         -5.2447    1.7632   -0.8122 C.3       1 ****       -0.1295 
      6 H6         -5.0752    1.7272   -1.8897 H         1 ****        0.0646 
      7 H7         -5.5678    2.7856   -0.6083 H         1 ****        0.0646 
      8 C8         -3.9006    1.5196   -0.0883 C.3       1 ****       -0.1303 
      9 H9         -3.2294    2.3296   -0.3792 H         1 ****        0.0641 
     10 H10        -4.0197    1.6354    0.9900 H         1 ****        0.0641 
     11 C11        -3.1971    0.1834   -0.4155 C.3       1 ****       -0.1295 
     12 H12        -3.4115   -0.1096   -1.4448 H         1 ****        0.0646 
     13 H13        -2.1184    0.3464   -0.3803 H         1 ****        0.0646 
     14 C14        -3.5348   -0.9700    0.5488 C.3       1 ****       -0.1303 
     15 H15        -3.2956   -0.6729    1.5713 H         1 ****        0.0637 
     16 H16        -4.6038   -1.1771    0.5408 H         1 ****        0.0637 
     17 C17        -2.7779   -2.2622    0.2110 C.3       1 ****       -0.1718 
     18 H18        -3.0329   -3.0585    0.9110 H         1 ****        0.0587 
     19 H19        -3.0229   -2.6143   -0.7918 H         1 ****        0.0587 
     20 H20        -1.6983   -2.1149    0.2589 H         1 ****        0.0587 
     21 H21        -7.6738    0.1910    1.1968 H         1 ****        0.0587 
     22 H22        -6.0158    0.5184    1.6751 H         1 ****        0.0587 
     23 H23        -7.1095    1.8532    1.3203 H         1 ****        0.0587 
@<TRIPOS>BOND
     1    1    2 1    
     2    1    3 1    
     3    1    4 1    
     4    1    5 1    
     5    2   21 1    
     6    2   22 1    
     7    2   23 1    
     8    5    6 1    
     9    5    7 1    
    10    5    8 1    
    11    8    9 1    
    12    8   10 1    
    13    8   11 1    
    14   11   12 1    
    15   11   13 1    
    16   11   14 1    
    17   14   15 1    
    18   14   16 1    
    19   14   17 1    
    20   17   18 1    
    21   17   19 1    
    22   17   20 1    
@<TRIPOS>SUBSTRUCTURE
     1 ****        1 GROUP             0       ****    0 ROOT    
@<TRIPOS>MOLECULE
heptane
23   22    1
SMALL
USER_CHARGES


@<TRIPOS>ATOM
      1 C1         -2.7015   -1.2142   -0.4517 C.3       1 ****       -0.1303 
      2 C2         -2.7984   -1.8383    0.9496 C.3       1 ****       -0.1718 
      3 H3         -1.7597   -0.6711   -0.5469 H         1 ****        0.0637 
      4 H4         -2.6543   -2.0181   -1.1884 H         1 ****        0.0637 
      5 C5         -3.8783   -0.2853   -0.8073 C.3       1 ****       -0.1295 
      6 H6         -3.7969   -0.0144   -1.8613 H         1 ****        0.0646 
      7 H7         -4.8109   -0.8417   -0.7226 H         1 ****        0.0646 
      8 C8         -3.9353    1.0079    0.0338 C.3       1 ****       -0.1303 
      9 H9         -4.0074    0.7736    1.0966 H         1 ****        0.0641 
     10 H10        -2.9837    1.5293   -0.0842 H         1 ****        0.0641 
     11 C11        -5.0749    1.9726   -0.3631 C.3       1 ****       -0.1295 
     12 H12        -4.7285    2.9935   -0.1927 H         1 ****        0.0646 
     13 H13        -5.2643    1.9159   -1.4365 H         1 ****        0.0646 
     14 C14        -6.3948    1.7987    0.4177 C.3       1 ****       -0.1303 
     15 H15        -7.0822    2.5901    0.1142 H         1 ****        0.0637 
     16 H16        -6.2146    1.9600    1.4819 H         1 ****        0.0637 
     17 C17        -7.0938    0.4454    0.2214 C.3       1 ****       -0.1718 
     18 H18        -6.5269   -0.3655    0.6788 H         1 ****        0.0587 
     19 H19        -8.0800    0.4473    0.6866 H         1 ****        0.0587 
     20 H20        -7.2281    0.2143   -0.8359 H         1 ****        0.0587 
     21 H21        -1.9810   -2.5397    1.1198 H         1 ****        0.0587 
     22 H22        -2.7444   -1.0824    1.7331 H         1 ****        0.0587 
     23 H23        -3.7332   -2.3855    1.0765 H         1 ****        0.0587 
@<TRIPOS>BOND
     1    1    2 1    
     2    1    3 1    
     3    1    4 1    
     4    1    5 1    
     5    2   21 1    
     6    2   22 1    
     7    2   23 1    
     8    5    6 1    
     9    5    7 1    
    10    5    8 1    
    11    8    9 1    
    12    8   10 1    
    13    8   11 1    
    14   11   12 1    
    15   11   13 1    
    16   11   14 1    
    17   14   15 1    
    18   14   16 1    
    19   14   17 1    
    20   17   18 1    
    21   17   19 1    
    22   17   20 1    
@<TRIPOS>SUBSTRUCTURE
     1 ****        1 GROUP             0       ****    0 ROOT    
@<TRIPOS>MOLECULE
heptane
23   22    1
SMALL
USER_CHARGES


@<TRIPOS>ATOM
      1 C1         -2.6474   -0.8890    0.6209 C.3       1 ****       -0.1303 
      2 C2         -3.1171   -2.1810   -0.0687 C.3       1 ****       -0.1718 
      3 H3         -3.1617   -0.7648    1.5755 H         1 ****        0.0637 
      4 H4         -1.5929   -1.0116    0.8744 H         1 ****        0.0637 
      5 C5         -2.8031    0.3838   -0.2398 C.3       1 ****       -0.1295 
      6 H6         -2.6425    0.1506   -1.2939 H         1 ****        0.0646 
      7 H7         -1.9952    1.0692    0.0223 H         1 ****        0.0646 
      8 C8         -4.1312    1.1508   -0.0624 C.3       1 ****       -0.1303 
      9 H9         -4.2292    1.4605    0.9791 H         1 ****        0.0641 
     10 H10        -4.0684    2.0752   -0.6392 H         1 ****        0.0641 
     11 C11        -5.3939    0.3798   -0.4948 C.3       1 ****       -0.1295 
     12 H12        -5.2239   -0.0628   -1.4778 H         1 ****        0.0646 
     13 H13        -5.5673   -0.4533    0.1872 H         1 ****        0.0646 
     14 C14        -6.6670    1.2455   -0.5585 C.3       1 ****       -0.1303 
     15 H15        -6.5167    2.0716   -1.2556 H         1 ****        0.0637 
     16 H16        -7.4775    0.6482   -0.9796 H         1 ****        0.0637 
     17 C17        -7.1172    1.7968    0.8038 C.3       1 ****       -0.1718 
     18 H18        -6.3789    2.4792    1.2255 H         1 ****        0.0587 
     19 H19        -8.0530    2.3486    0.7100 H         1 ****        0.0587 
     20 H20        -7.2795    0.9932    1.5230 H         1 ****        0.0587 
     21 H21        -4.1777   -2.1593   -0.3130 H         1 ****        0.0587 
     22 H22        -2.5691   -2.3550   -0.9954 H         1 ****        0.0587 
     23 H23        -2.9513   -3.0453    0.5752 H         1 ****        0.0587 
@<TRIPOS>BOND
     1    1    2 1    
     2    1    3 1    
     3    1    4 1    
     4    1    5 1    
     5    2   21 1    
     6    2   22 1    
     7    2   23 1    
     8    5    6 1    
     9    5    7 1    
    10    5    8 1    
    11    8    9 1    
    12    8   10 1    
    13    8   11 1    
    14   11   12 1    
    15   11   13 1    
    16   11   14 1    
    17   14   15 1    
    18   14   16 1    
    19   14   17 1    
    20   17   18 1    
    21   17   19 1    
    22   17   20 1    
@<TRIPOS>SUBSTRUCTURE
     1 ****        1 GROUP             0       ****    0 ROOT    
@<TRIPOS>MOLECULE
heptane
23   22    1
SMALL
USER_CHARGES


@<TRIPOS>ATOM
      1 C1         -6.3654    2.0245   -0.2737 C.3       1 ****       -0.1303 
      2 C2         -6.8053    1.4588    1.0846 C.3       1 ****       -0.1718 
      3 H3         -7.2551    2.3391   -0.8218 H         1 ****        0.0637 
      4 H4         -5.7836    2.9340   -0.1140 H         1 ****        0.0637 
      5 C5         -5.5651    1.0473   -1.1606 C.3       1 ****       -0.1295 
      6 H6         -6.1760    0.1767   -1.4058 H         1 ****        0.0646 
      7 H7         -5.3891    1.5450   -2.1159 H         1 ****        0.0646 
      8 C8         -4.1989    0.6021   -0.5930 C.3       1 ****       -0.1303 
      9 H9         -3.5098    0.4694   -1.4283 H         1 ****        0.0641 
     10 H10        -3.7690    1.4010    0.0137 H         1 ****        0.0641 
     11 C11        -4.2468   -0.7147    0.2108 C.3       1 ****       -0.1295 
     12 H12        -5.0016   -0.6439    0.9930 H         1 ****        0.0646 
     13 H13        -4.5791   -1.5263   -0.4388 H         1 ****        0.0646 
     14 C14        -2.9068   -1.1000    0.8668 C.3       1 ****       -0.1303 
     15 H15        -2.5780   -0.2980    1.5300 H         1 ****        0.0637 
     16 H16        -3.0674   -1.9670    1.5099 H         1 ****        0.0637 
     17 C17        -1.7886   -1.4313   -0.1345 C.3       1 ****       -0.1718 
     18 H18        -1.5142   -0.5634   -0.7344 H         1 ****        0.0587 
     19 H19        -0.8888   -1.7636    0.3842 H         1 ****        0.0587 
     20 H20        -2.0889   -2.2283   -0.8157 H         1 ****        0.0587 
     21 H21        -7.4705    2.1544    1.5973 H         1 ****        0.0587 
     22 H22        -7.3399    0.5152    0.9700 H         1 ****        0.0587 
     23 H23        -5.9518    1.2898    1.7412 H         1 ****        0.0587 
@<TRIPOS>BOND
     1    1    2 1    
     2    1    3 1    
     3    1    4 1    
     4    1    5 1    
     5    2   21 1    
     6    2   22 1    
     7    2   23 1    
     8    5    6 1    
     9    5    7 1    
    10    5    8 1    
    11    8    9 1    
    12    8   10 1    
    13    8   11 1    
    14   11   12 1    
    15   11   13 1    
    16   11   14 1    
    17   14   15 1    
    18   14   16 1    
    19   14   17 1    
    20   17   18 1    
    21   17   19 1    
    22   17   20 1    
@<TRIPOS>SUBSTRUCTURE
     1 ****        1 GROUP             0       ****    0 ROOT    
@<TRIPOS>MOLECULE
heptane
23   22    1
SMALL
USER_CHARGES


@<TRIPOS>ATOM
      1 C1         -6.2193    2.0072   -0.0713 C.3       1 ****       -0.1303 
      2 C2         -7.1540    1.2329    0.8734 C.3       1 ****       -0.1718 
      3 H3         -6.8181    2.7569   -0.5915 H         1 ****        0.0637 
      4 H4         -5.4863    2.5733    0.5062 H         1 ****        0.0637 
      5 C5         -5.5086    1.1254   -1.1213 C.3       1 ****       -0.1295 
      6 H6         -5.4011    1.7099   -2.0368 H         1 ****        0.0646 
      7 H7         -6.1429    0.2820   -1.4002 H         1 ****        0.0646 
      8 C8         -4.1024    0.6223   -0.7297 C.3       1 ****       -0.1303 
      9 H9         -3.6849    0.1017   -1.5920 H         1 ****        0.0641 
     10 H10        -3.4462    1.4771   -0.5572 H         1 ****        0.0641 
     11 C11        -4.0615   -0.3096    0.4976 C.3       1 ****       -0.1295 
     12 H12        -4.3865    0.2500    1.3750 H         1 ****        0.0646 
     13 H13        -4.7803   -1.1213    0.3726 H         1 ****        0.0646 
     14 C14        -2.6684   -0.8947    0.8011 C.3       1 ****       -0.1303 
     15 H15        -1.9448   -0.0856    0.9145 H         1 ****        0.0637 
     16 H16        -2.7037   -1.3964    1.7696 H         1 ****        0.0637 
     17 C17        -2.1628   -1.8968   -0.2493 C.3       1 ****       -0.1718 
     18 H18        -2.8705   -2.7145   -0.3908 H         1 ****        0.0587 
     19 H19        -2.0008   -1.4228   -1.2174 H         1 ****        0.0587 
     20 H20        -1.2126   -2.3345    0.0584 H         1 ****        0.0587 
     21 H21        -6.6248    0.4810    1.4565 H         1 ****        0.0587 
     22 H22        -7.6385    1.9088    1.5787 H         1 ****        0.0587 
     23 H23        -7.9414    0.7229    0.3173 H         1 ****        0.0587 
@<TRIPOS>BOND
     1    1    2 1    
     2    1    3 1    
     3    1    4 1    
     4    1    5 1    
     5    2   21 1    
     6    2   22 1    
     7    2   23 1    
     8    5    6 1    
     9    5    7 1    
    10    5    8 1    
    11    8    9 1    
    12    8   10 1    
    13    8   11 1    
    14   11   12 1    
    15   11   13 1    
    16   11   14 1    
    17   14   15 1    
    18   14   16 1    
    19   14   17 1    
    20   17   18 1    
    21   17   19 1    
    22   17   20 1    
@<TRIPOS>SUBSTRUCTURE
     1 ****        1 GROUP             0       ****    0 ROOT    
@<TRIPOS>MOLECULE
heptane
23   22    1
SMALL
USER_CHARGES


@<TRIPOS>ATOM
      1 C1         -2.9195   -0.8292    0.4084 C.3       1 ****       -0.1303 
      2 C2         -2.6353   -2.3293    0.2476 C.3       1 ****       -0.1718 
      3 H3         -3.3932   -0.6633    1.3764 H         1 ****        0.0637 
      4 H4         -1.9733   -0.2862    0.4366 H         1 ****        0.0637 
      5 C5         -3.8054   -0.2701   -0.7214 C.3       1 ****       -0.1295 
      6 H6         -4.7549   -0.8034   -0.7359 H         1 ****        0.0646 
      7 H7         -3.3323   -0.4942   -1.6790 H         1 ****        0.0646 
      8 C8         -4.0408    1.2544   -0.6448 C.3       1 ****       -0.1303 
      9 H9         -3.0677    1.7450   -0.5832 H         1 ****        0.0641 
     10 H10        -4.4697    1.6022   -1.5862 H         1 ****        0.0641 
     11 C11        -4.9217    1.7437    0.5290 C.3       1 ****       -0.1295 
     12 H12        -4.7511    1.1423    1.4219 H         1 ****        0.0646 
     13 H13        -4.5878    2.7463    0.8019 H         1 ****        0.0646 
     14 C14        -6.4347    1.8302    0.2366 C.3       1 ****       -0.1303 
     15 H15        -6.9255    2.2872    1.0976 H         1 ****        0.0637 
     16 H16        -6.6099    2.5134   -0.5961 H         1 ****        0.0637 
     17 C17        -7.1195    0.4870   -0.0549 C.3       1 ****       -0.1718 
     18 H18        -6.8084    0.0817   -1.0174 H         1 ****        0.0587 
     19 H19        -6.8953   -0.2518    0.7155 H         1 ****        0.0587 
     20 H20        -8.2029    0.6046   -0.0940 H         1 ****        0.0587 
     21 H21        -2.1163   -2.5375   -0.6888 H         1 ****        0.0587 
     22 H22        -2.0083   -2.6974    1.0604 H         1 ****        0.0587 
     23 H23        -3.5582   -2.9106    0.2544 H         1 ****        0.0587 
@<TRIPOS>BOND
     1    1    2 1    
     2    1    3 1    
     3    1    4 1    
     4    1    5 1    
     5    2   21 1    
     6    2   22 1    
     7    2   23 1    
     8    5    6 1    
     9    5    7 1    
    10    5    8 1    
    11    8    9 1    
    12    8   10 1    
    13    8   11 1    
    14   11   12 1    
    15   11   13 1    
    16   11   14 1    
    17   14   15 1    
    18   14   16 1    
    19   14   17 1    
    20   17   18 1    
    21   17   19 1    
    22   17   20 1    
@<TRIPOS>SUBSTRUCTURE
     1 ****        1 GROUP             0       ****    0 ROOT    
@<TRIPOS>MOLECULE
heptane
23   22    1
SMALL
USER_CHARGES


@<TRIPOS>ATOM
      1 C1         -3.0730   -0.4513    0.5295 C.3       1 ****       -0.1303 
      2 C2         -1.7313   -1.1782    0.6975 C.3       1 ****       -0.1718 
      3 H3         -3.6597   -0.5609    1.4432 H         1 ****        0.0637 
      4 H4         -2.8784    0.6150    0.4111 H         1 ****        0.0637 
      5 C5         -3.8807   -0.9675   -0.6744 C.3       1 ****       -0.1295 
      6 H6         -3.3359   -0.7539   -1.5956 H         1 ****        0.0646 
      7 H7         -3.9427   -2.0557   -0.6165 H         1 ****        0.0646 
      8 C8         -5.3170   -0.4121   -0.7856 C.3       1 ****       -0.1303 
      9 H9         -5.7939   -0.9148   -1.6288 H         1 ****        0.0641 
     10 H10        -5.8996   -0.7162    0.0842 H         1 ****        0.0641 
     11 C11        -5.4268    1.1134   -1.0175 C.3       1 ****       -0.1295 
     12 H12        -4.5700    1.4533   -1.6018 H         1 ****        0.0646 
     13 H13        -6.2933    1.3123   -1.6509 H         1 ****        0.0646 
     14 C14        -5.5553    1.9764    0.2561 C.3       1 ****       -0.1303 
     15 H15        -4.7361    1.7739    0.9447 H         1 ****        0.0637 
     16 H16        -5.4472    3.0257   -0.0233 H         1 ****        0.0637 
     17 C17        -6.8929    1.8061    0.9948 C.3       1 ****       -0.1718 
     18 H18        -7.7385    2.0173    0.3392 H         1 ****        0.0587 
     19 H19        -7.0165    0.7959    1.3846 H         1 ****        0.0587 
     20 H20        -6.9569    2.4891    1.8424 H         1 ****        0.0587 
     21 H21        -1.8759   -2.2465    0.8631 H         1 ****        0.0587 
     22 H22        -1.1020   -1.0591   -0.1853 H         1 ****        0.0587 
     23 H23        -1.1786   -0.7850    1.5514 H         1 ****        0.0587 
@<TRIPOS>BOND
     1    1    2 1    
     2    1    3 1    
     3    1    4 1    
     4    1    5 1    
     5    2   21 1    
     6    2   22 1    
     7    2   23 1    
     8    5    6 1    
     9    5    7 1    
    10    5    8 1    
    11    8    9 1    
    12    8   10 1    
    13    8   11 1    
    14   11   12 1    
    15   11   13 1    
    16   11   14 1    
    17   14   15 1    
    18   14   16 1    
    19   14   17 1    
    20   17   18 1    
    21   17   19 1    
    22   17   20 1    
@<TRIPOS>SUBSTRUCTURE
     1 ****        1 GROUP             0       ****    0 ROOT    
@<TRIPOS>MOLECULE
heptane
23   22    1
SMALL
USER_CHARGES


@<TRIPOS>ATOM
      1 C1         -2.6555   -0.8620   -0.1872 C.3       1 ****       -0.1303 
      2 C2         -3.4316   -1.8634    0.6841 C.3       1 ****       -0.1718 
      3 H3         -1.9837   -0.2671    0.4338 H         1 ****        0.0637 
      4 H4         -2.0046   -1.4353   -0.8496 H         1 ****        0.0637 
      5 C5         -3.5418    0.0610   -1.0523 C.3       1 ****       -0.1295 
      6 H6         -4.4167   -0.4801   -1.4155 H         1 ****        0.0646 
      7 H7         -2.9794    0.3110   -1.9536 H         1 ****        0.0646 
      8 C8         -3.9628    1.3963   -0.3971 C.3       1 ****       -0.1303 
      9 H9         -3.0645    1.9439   -0.1073 H         1 ****        0.0641 
     10 H10        -4.4378    2.0201   -1.1555 H         1 ****        0.0641 
     11 C11        -4.9003    1.3040    0.8260 C.3       1 ****       -0.1295 
     12 H12        -4.3719    0.8239    1.6495 H         1 ****        0.0646 
     13 H13        -5.1063    2.3149    1.1819 H         1 ****        0.0646 
     14 C14        -6.2430    0.5833    0.5844 C.3       1 ****       -0.1303 
     15 H15        -6.0660   -0.4514    0.2887 H         1 ****        0.0637 
     16 H16        -6.7840    0.5263    1.5302 H         1 ****        0.0637 
     17 C17        -7.1419    1.2674   -0.4575 C.3       1 ****       -0.1718 
     18 H18        -6.6848    1.2607   -1.4473 H         1 ****        0.0587 
     19 H19        -8.1011    0.7553   -0.5396 H         1 ****        0.0587 
     20 H20        -7.3440    2.3047   -0.1883 H         1 ****        0.0587 
     21 H21        -4.0416   -1.3710    1.4389 H         1 ****        0.0587 
     22 H22        -4.0916   -2.4857    0.0788 H         1 ****        0.0587 
     23 H23        -2.7469   -2.5294    1.2099 H         1 ****        0.0587 
@<TRIPOS>BOND
     1    1    2 1    
     2    1    3 1    
     3    1    4 1    
     4    1    5 1    
     5    2   21 1    
     6    2   22 1    
     7    2   23 1    
     8    5    6 1    
     9    5    7 1    
    10    5    8 1    
    11    8    9 1    
    12    8   10 1    
    13    8   11 1    
    14   11   12 1    
    15   11   13 1    
    16   11   14 1    
    17   14   15 1    
    18   14   16 1    
    19   14   17 1    
    20   17   18 1    
    21   17   19 1    
    22   17   20 1    
@<TRIPOS>SUBSTRUCTURE
     1 ****        1 GROUP             0       ****    0 ROOT    
@<TRIPOS>MOLECULE
heptane
23   22    1
SMALL
USER_CHARGES


@<TRIPOS>ATOM
      1 C1         -3.0887   -0.5049    0.7751 C.3       1 ****       -0.1303 
      2 C2         -3.3244   -2.0116    0.5800 C.3       1 ****       -0.1718 
      3 H3         -3.8287   -0.1106    1.4695 H         1 ****        0.0637 
      4 H4         -2.1267   -0.3690    1.2719 H         1 ****        0.0637 
      5 C5         -3.0798    0.3070   -0.5378 C.3       1 ****       -0.1295 
      6 H6         -2.7095    1.3140   -0.3382 H         1 ****        0.0646 
      7 H7         -2.3370   -0.1372   -1.2029 H         1 ****        0.0646 
      8 C8         -4.4285    0.3970   -1.2907 C.3       1 ****       -0.1303 
      9 H9         -4.2065    0.4776   -2.3562 H         1 ****        0.0641 
     10 H10        -4.9910   -0.5319   -1.2008 H         1 ****        0.0641 
     11 C11        -5.3219    1.6043   -0.9240 C.3       1 ****       -0.1295 
     12 H12        -4.7663    2.5242   -1.1142 H         1 ****        0.0646 
     13 H13        -6.1656    1.6327   -1.6157 H         1 ****        0.0646 
     14 C14        -5.8707    1.6458    0.5156 C.3       1 ****       -0.1303 
     15 H15        -6.4524    2.5609    0.6380 H         1 ****        0.0637 
     16 H16        -5.0499    1.7352    1.2271 H         1 ****        0.0637 
     17 C17        -6.7630    0.4491    0.8822 C.3       1 ****       -0.1718 
     18 H18        -6.2103   -0.4900    0.8547 H         1 ****        0.0587 
     19 H19        -7.1662    0.5589    1.8894 H         1 ****        0.0587 
     20 H20        -7.6068    0.3594    0.1973 H         1 ****        0.0587 
     21 H21        -3.2436   -2.5422    1.5292 H         1 ****        0.0587 
     22 H22        -4.3159   -2.2195    0.1783 H         1 ****        0.0587 
     23 H23        -2.5902   -2.4437   -0.1009 H         1 ****        0.0587 
@<TRIPOS>BOND
     1    1    2 1    
     2    1    3 1    
     3    1    4 1    
     4    1    5 1    
     5    2   21 1    
     6    2   22 1    
     7    2   23 1    
     8    5    6 1    
     9    5    7 1    
    10    5    8 1    
    11    8    9 1    
    12    8   10 1    
    13    8   11 1    
    14   11   12 1    
    15   11   13 1    
    16   11   14 1    
    17   14   15 1    
    18   14   16 1    
    19   14   17 1    
    20   17   18 1    
    21   17   19 1    
    22   17   20 1    
@<TRIPOS>SUBSTRUCTURE
     1 ****        1 GROUP             0       ****    0 ROOT    
@<TRIPOS>MOLECULE
heptane
23   22    1
SMALL
USER_CHARGES


@<TRIPOS>ATOM
      1 C1         -2.8099   -0.6124    0.5401 C.3       1 ****       -0.1303 
      2 C2         -3.7982   -1.7350    0.8992 C.3       1 ****       -0.1718 
      3 H3         -2.8986    0.2144    1.2463 H         1 ****        0.0637 
      4 H4         -1.8005   -1.0024    0.6824 H         1 ****        0.0637 
      5 C5         -2.9395   -0.0963   -0.9087 C.3       1 ****       -0.1295 
      6 H6         -3.2354   -0.9100   -1.5733 H         1 ****        0.0646 
      7 H7         -1.9440    0.1936   -1.2498 H         1 ****        0.0646 
      8 C8         -3.8666    1.1224   -1.1218 C.3       1 ****       -0.1303 
      9 H9         -3.4979    1.9755   -0.5493 H         1 ****        0.0641 
     10 H10        -3.7661    1.4243   -2.1659 H         1 ****        0.0641 
     11 C11        -5.3671    0.8953   -0.8380 C.3       1 ****       -0.1295 
     12 H12        -5.9484    1.4825   -1.5512 H         1 ****        0.0646 
     13 H13        -5.6325   -0.1435   -1.0407 H         1 ****        0.0646 
     14 C14        -5.8065    1.3034    0.5815 C.3       1 ****       -0.1303 
     15 H15        -5.2023    0.7941    1.3315 H         1 ****        0.0637 
     16 H16        -5.6211    2.3689    0.7269 H         1 ****        0.0637 
     17 C17        -7.2892    1.0094    0.8481 C.3       1 ****       -0.1718 
     18 H18        -7.9326    1.5427    0.1473 H         1 ****        0.0587 
     19 H19        -7.5044   -0.0559    0.7553 H         1 ****        0.0587 
     20 H20        -7.5733    1.3160    1.8553 H         1 ****        0.0587 
     21 H21        -3.6526   -2.6066    0.2601 H         1 ****        0.0587 
     22 H22        -3.6586   -2.0594    1.9307 H         1 ****        0.0587 
     23 H23        -4.8361   -1.4232    0.7944 H         1 ****        0.0587 
@<TRIPOS>BOND
     1    1    2 1    
     2    1    3 1    
     3    1    4 1    
     4    1    5 1    
     5    2   21 1    
     6    2   22 1    
     7    2   23 1    
     8    5    6 1    
     9    5    7 1    
    10    5    8 1    
    11    8    9 1    
    12    8   10 1    
    13    8   11 1    
    14   11   12 1    
    15   11   13 1    
    16   11   14 1    
    17   14   15 1    
    18   14   16 1    
    19   14   17 1    
    20   17   18 1    
    21   17   19 1    
    22   17   20 1    
@<TRIPOS>SUBSTRUCTURE
     1 ****        1 GROUP             0       ****    0 ROOT    
@<TRIPOS>MOLECULE
heptane
23   22    1
SMALL
USER_CHARGES


@<TRIPOS>ATOM
      1 C1         -6.4140    1.5891    0.5466 C.3       1 ****       -0.1303 
      2 C2         -7.0142    0.9193   -0.6985 C.3       1 ****       -0.1718 
      3 H3         -6.3153    2.6612    0.3682 H         1 ****        0.0637 
      4 H4         -7.1253    1.4934    1.3687 H         1 ****        0.0637 
      5 C5         -5.0568    1.0121    1.0011 C.3       1 ****       -0.1295 
      6 H6         -4.7852    1.5057    1.9357 H         1 ****        0.0646 
      7 H7         -5.1759   -0.0399    1.2607 H         1 ****        0.0646 
      8 C8         -3.8934    1.2031   -0.0001 C.3       1 ****       -0.1303 
      9 H9         -4.0500    2.1322   -0.5511 H         1 ****        0.0641 
     10 H10        -2.9651    1.3648    0.5507 H         1 ****        0.0641 
     11 C11        -3.6863    0.0423   -1.0011 C.3       1 ****       -0.1295 
     12 H12        -4.6387   -0.4203   -1.2605 H         1 ****        0.0646 
     13 H13        -3.3114    0.4626   -1.9359 H         1 ****        0.0646 
     14 C14        -2.6903   -1.0453   -0.5464 C.3       1 ****       -0.1303 
     15 H15        -2.5438   -1.7480   -1.3684 H         1 ****        0.0637 
     16 H16        -1.7122   -0.5951   -0.3682 H         1 ****        0.0637 
     17 C17        -3.1219   -1.8340    0.6989 C.3       1 ****       -0.1718 
     18 H18        -3.1518   -1.1979    1.5837 H         1 ****        0.0587 
     19 H19        -4.1095   -2.2773    0.5666 H         1 ****        0.0587 
     20 H20        -2.4224   -2.6440    0.9076 H         1 ****        0.0587 
     21 H21        -6.4045    1.1027   -1.5834 H         1 ****        0.0587 
     22 H22        -7.1034   -0.1595   -0.5660 H         1 ****        0.0587 
     23 H23        -8.0110    1.3092   -0.9072 H         1 ****        0.0587 
@<TRIPOS>BOND
     1    1    2 1    
     2    1    3 1    
     3    1    4 1    
     4    1    5 1    
     5    2   21 1    
     6    2   22 1    
     7    2   23 1    
     8    5    6 1    
     9    5    7 1    
    10    5    8 1    
    11    8    9 1    
    12    8   10 1    
    13    8   11 1    
    14   11   12 1    
    15   11   13 1    
    16   11   14 1    
    17   14   15 1    
    18   14   16 1    
    19   14   17 1    
    20   17   18 1    
    21   17   19 1    
    22   17   20 1    
@<TRIPOS>SUBSTRUCTURE
     1 ****        1 GROUP             0       ****    0 ROOT    
