@<TRIPOS>MOLECULE
heptane
23   22    1
SMALL
USER_CHARGES


@<TRIPOS>ATOM
      1 C1         -2.6555   -0.8620   -0.1872 C.3       1 ****       -0.1303 
      2 C2         -3.4316   -1.8634    0.6841 C.3       1 ****       -0.1718 
      3 H3         -1.9837   -0.2671    0.4338 H         1 ****        0.0637 
      4 H4         -2.0046   -1.4353   -0.8496 H         1 ****        0.0637 
      5 C5         -3.5418    0.0610   -1.0523 C.3       1 ****       -0.1295 
      6 H6         -4.4167   -0.4801   -1.4155 H         1 ****        0.0646 
      7 H7         -2.9794    0.3110   -1.9536 H         1 ****        0.0646 
      8 C8         -3.9628    1.3963   -0.3971 C.3       1 ****       -0.1303 
      9 H9         -3.0645    1.9439   -0.1073 H         1 ****        0.0641 
     10 H10        -4.4378    2.0201   -1.1555 H         1 ****        0.0641 
     11 C11        -4.9003    1.3040    0.8260 C.3       1 ****       -0.1295 
     12 H12        -4.3719    0.8239    1.6495 H         1 ****        0.0646 
     13 H13        -5.1063    2.3149    1.1819 H         1 ****        0.0646 
     14 C14        -6.2430    0.5833    0.5844 C.3       1 ****       -0.1303 
     15 H15        -6.0660   -0.4514    0.2887 H         1 ****        0.0637 
     16 H16        -6.7840    0.5263    1.5302 H         1 ****        0.0637 
     17 C17        -7.1419    1.2674   -0.4575 C.3       1 ****       -0.1718 
     18 H18        -6.6848    1.2607   -1.4473 H         1 ****        0.0587 
     19 H19        -8.1011    0.7553   -0.5396 H         1 ****        0.0587 
     20 H20        -7.3440    2.3047   -0.1883 H         1 ****        0.0587 
     21 H21        -4.0416   -1.3710    1.4389 H         1 ****        0.0587 
     22 H22        -4.0916   -2.4857    0.0788 H         1 ****        0.0587 
     23 H23        -2.7469   -2.5294    1.2099 H         1 ****        0.0587 
@<TRIPOS>BOND
     1    1    2 1    
     2    1    3 1    
     3    1    4 1    
     4    1    5 1    
     5    2   21 1    
     6    2   22 1    
     7    2   23 1    
     8    5    6 1    
     9    5    7 1    
    10    5    8 1    
    11    8    9 1    
    12    8   10 1    
    13    8   11 1    
    14   11   12 1    
    15   11   13 1    
    16   11   14 1    
    17   14   15 1    
    18   14   16 1    
    19   14   17 1    
    20   17   18 1    
    21   17   19 1    
    22   17   20 1    
@<TRIPOS>SUBSTRUCTURE
     1 ****        1 GROUP             0       ****    0 ROOT    
