@<TRIPOS>MOLECULE
heptane
23   22    1
SMALL
USER_CHARGES


@<TRIPOS>ATOM
      1 C1         -6.5908    1.7328   -0.6322 C.3       1 ****       -0.1303 
      2 C2         -7.5231    1.3230    0.5191 C.3       1 ****       -0.1718 
      3 H3         -6.7865    1.1041   -1.5026 H         1 ****        0.0637 
      4 H4         -6.8423    2.7492   -0.9399 H         1 ****        0.0637 
      5 C5         -5.0921    1.6789   -0.2778 C.3       1 ****       -0.1295 
      6 H6         -4.5257    2.1132   -1.1035 H         1 ****        0.0646 
      7 H7         -4.8986    2.3206    0.5836 H         1 ****        0.0646 
      8 C8         -4.5610    0.2594    0.0004 C.3       1 ****       -0.1303 
      9 H9         -5.0802   -0.1665    0.8600 H         1 ****        0.0641 
     10 H10        -4.7978   -0.3831   -0.8486 H         1 ****        0.0641 
     11 C11        -3.0432    0.2346    0.2649 C.3       1 ****       -0.1295 
     12 H12        -2.5106    0.6197   -0.6065 H         1 ****        0.0646 
     13 H13        -2.8146    0.9238    1.0798 H         1 ****        0.0646 
     14 C14        -2.4901   -1.1560    0.6318 C.3       1 ****       -0.1303 
     15 H15        -1.4452   -1.0510    0.9286 H         1 ****        0.0637 
     16 H16        -3.0097   -1.5388    1.5119 H         1 ****        0.0637 
     17 C17        -2.5766   -2.1860   -0.5058 C.3       1 ****       -0.1718 
     18 H18        -3.6104   -2.4068   -0.7723 H         1 ****        0.0587 
     19 H19        -2.0680   -1.8305   -1.4027 H         1 ****        0.0587 
     20 H20        -2.1096   -3.1271   -0.2140 H         1 ****        0.0587 
     21 H21        -7.3848    0.2782    0.7978 H         1 ****        0.0587 
     22 H22        -7.3495    1.9325    1.4067 H         1 ****        0.0587 
     23 H23        -8.5686    1.4463    0.2348 H         1 ****        0.0587 
@<TRIPOS>BOND
     1    1    2 1    
     2    1    3 1    
     3    1    4 1    
     4    1    5 1    
     5    2   21 1    
     6    2   22 1    
     7    2   23 1    
     8    5    6 1    
     9    5    7 1    
    10    5    8 1    
    11    8    9 1    
    12    8   10 1    
    13    8   11 1    
    14   11   12 1    
    15   11   13 1    
    16   11   14 1    
    17   14   15 1    
    18   14   16 1    
    19   14   17 1    
    20   17   18 1    
    21   17   19 1    
    22   17   20 1    
@<TRIPOS>SUBSTRUCTURE
     1 ****        1 GROUP             0       ****    0 ROOT    
