@<TRIPOS>MOLECULE
heptane
23   22    1
SMALL
USER_CHARGES


@<TRIPOS>ATOM
      1 C1         -2.9195   -0.8292    0.4084 C.3       1 ****       -0.1303 
      2 C2         -2.6353   -2.3293    0.2476 C.3       1 ****       -0.1718 
      3 H3         -3.3932   -0.6633    1.3764 H         1 ****        0.0637 
      4 H4         -1.9733   -0.2862    0.4366 H         1 ****        0.0637 
      5 C5         -3.8054   -0.2701   -0.7214 C.3       1 ****       -0.1295 
      6 H6         -4.7549   -0.8034   -0.7359 H         1 ****        0.0646 
      7 H7         -3.3323   -0.4942   -1.6790 H         1 ****        0.0646 
      8 C8         -4.0408    1.2544   -0.6448 C.3       1 ****       -0.1303 
      9 H9         -3.0677    1.7450   -0.5832 H         1 ****        0.0641 
     10 H10        -4.4697    1.6022   -1.5862 H         1 ****        0.0641 
     11 C11        -4.9217    1.7437    0.5290 C.3       1 ****       -0.1295 
     12 H12        -4.7511    1.1423    1.4219 H         1 ****        0.0646 
     13 H13        -4.5878    2.7463    0.8019 H         1 ****        0.0646 
     14 C14        -6.4347    1.8302    0.2366 C.3       1 ****       -0.1303 
     15 H15        -6.9255    2.2872    1.0976 H         1 ****        0.0637 
     16 H16        -6.6099    2.5134   -0.5961 H         1 ****        0.0637 
     17 C17        -7.1195    0.4870   -0.0549 C.3       1 ****       -0.1718 
     18 H18        -6.8084    0.0817   -1.0174 H         1 ****        0.0587 
     19 H19        -6.8953   -0.2518    0.7155 H         1 ****        0.0587 
     20 H20        -8.2029    0.6046   -0.0940 H         1 ****        0.0587 
     21 H21        -2.1163   -2.5375   -0.6888 H         1 ****        0.0587 
     22 H22        -2.0083   -2.6974    1.0604 H         1 ****        0.0587 
     23 H23        -3.5582   -2.9106    0.2544 H         1 ****        0.0587 
@<TRIPOS>BOND
     1    1    2 1    
     2    1    3 1    
     3    1    4 1    
     4    1    5 1    
     5    2   21 1    
     6    2   22 1    
     7    2   23 1    
     8    5    6 1    
     9    5    7 1    
    10    5    8 1    
    11    8    9 1    
    12    8   10 1    
    13    8   11 1    
    14   11   12 1    
    15   11   13 1    
    16   11   14 1    
    17   14   15 1    
    18   14   16 1    
    19   14   17 1    
    20   17   18 1    
    21   17   19 1    
    22   17   20 1    
@<TRIPOS>SUBSTRUCTURE
     1 ****        1 GROUP             0       ****    0 ROOT    
