@<TRIPOS>MOLECULE
heptane
23   22    1
SMALL
USER_CHARGES


@<TRIPOS>ATOM
      1 C1         -3.2661   -0.7528    0.6029 C.3       1 ****       -0.1303 
      2 C2         -2.3610   -1.9673    0.8533 C.3       1 ****       -0.1718 
      3 H3         -4.2729   -0.9922    0.9465 H         1 ****        0.0637 
      4 H4         -2.9211    0.0854    1.2108 H         1 ****        0.0637 
      5 C5         -3.3085   -0.3400   -0.8791 C.3       1 ****       -0.1295 
      6 H6         -2.2857   -0.2361   -1.2458 H         1 ****        0.0646 
      7 H7         -3.7500   -1.1464   -1.4674 H         1 ****        0.0646 
      8 C8         -4.0585    0.9775   -1.1708 C.3       1 ****       -0.1303 
      9 H9         -3.5607    1.8103   -0.6708 H         1 ****        0.0641 
     10 H10        -3.9488    1.1846   -2.2368 H         1 ****        0.0641 
     11 C11        -5.5668    0.9734   -0.8363 C.3       1 ****       -0.1295 
     12 H12        -6.0856    1.5937   -1.5695 H         1 ****        0.0646 
     13 H13        -5.9751   -0.0305   -0.9664 H         1 ****        0.0646 
     14 C14        -5.9050    1.5110    0.5679 C.3       1 ****       -0.1303 
     15 H15        -5.3846    0.9384    1.3346 H         1 ****        0.0637 
     16 H16        -5.5403    2.5352    0.6630 H         1 ****        0.0637 
     17 C17        -7.4112    1.4850    0.8626 C.3       1 ****       -0.1718 
     18 H18        -7.8063    0.4693    0.8182 H         1 ****        0.0587 
     19 H19        -7.6213    1.8766    1.8584 H         1 ****        0.0587 
     20 H20        -7.9671    2.0912    0.1463 H         1 ****        0.0587 
     21 H21        -2.3582   -2.2409    1.9089 H         1 ****        0.0587 
     22 H22        -2.6988   -2.8370    0.2884 H         1 ****        0.0587 
     23 H23        -1.3297   -1.7610    0.5642 H         1 ****        0.0587 
@<TRIPOS>BOND
     1    1    2 1    
     2    1    3 1    
     3    1    4 1    
     4    1    5 1    
     5    2   21 1    
     6    2   22 1    
     7    2   23 1    
     8    5    6 1    
     9    5    7 1    
    10    5    8 1    
    11    8    9 1    
    12    8   10 1    
    13    8   11 1    
    14   11   12 1    
    15   11   13 1    
    16   11   14 1    
    17   14   15 1    
    18   14   16 1    
    19   14   17 1    
    20   17   18 1    
    21   17   19 1    
    22   17   20 1    
@<TRIPOS>SUBSTRUCTURE
     1 ****        1 GROUP             0       ****    0 ROOT    
