@<TRIPOS>MOLECULE
heptane
23   22    1
SMALL
USER_CHARGES


@<TRIPOS>ATOM
      1 C1         -6.2193    2.0072   -0.0713 C.3       1 ****       -0.1303 
      2 C2         -7.1540    1.2329    0.8734 C.3       1 ****       -0.1718 
      3 H3         -6.8181    2.7569   -0.5915 H         1 ****        0.0637 
      4 H4         -5.4863    2.5733    0.5062 H         1 ****        0.0637 
      5 C5         -5.5086    1.1254   -1.1213 C.3       1 ****       -0.1295 
      6 H6         -5.4011    1.7099   -2.0368 H         1 ****        0.0646 
      7 H7         -6.1429    0.2820   -1.4002 H         1 ****        0.0646 
      8 C8         -4.1024    0.6223   -0.7297 C.3       1 ****       -0.1303 
      9 H9         -3.6849    0.1017   -1.5920 H         1 ****        0.0641 
     10 H10        -3.4462    1.4771   -0.5572 H         1 ****        0.0641 
     11 C11        -4.0615   -0.3096    0.4976 C.3       1 ****       -0.1295 
     12 H12        -4.3865    0.2500    1.3750 H         1 ****        0.0646 
     13 H13        -4.7803   -1.1213    0.3726 H         1 ****        0.0646 
     14 C14        -2.6684   -0.8947    0.8011 C.3       1 ****       -0.1303 
     15 H15        -1.9448   -0.0856    0.9145 H         1 ****        0.0637 
     16 H16        -2.7037   -1.3964    1.7696 H         1 ****        0.0637 
     17 C17        -2.1628   -1.8968   -0.2493 C.3       1 ****       -0.1718 
     18 H18        -2.8705   -2.7145   -0.3908 H         1 ****        0.0587 
     19 H19        -2.0008   -1.4228   -1.2174 H         1 ****        0.0587 
     20 H20        -1.2126   -2.3345    0.0584 H         1 ****        0.0587 
     21 H21        -6.6248    0.4810    1.4565 H         1 ****        0.0587 
     22 H22        -7.6385    1.9088    1.5787 H         1 ****        0.0587 
     23 H23        -7.9414    0.7229    0.3173 H         1 ****        0.0587 
@<TRIPOS>BOND
     1    1    2 1    
     2    1    3 1    
     3    1    4 1    
     4    1    5 1    
     5    2   21 1    
     6    2   22 1    
     7    2   23 1    
     8    5    6 1    
     9    5    7 1    
    10    5    8 1    
    11    8    9 1    
    12    8   10 1    
    13    8   11 1    
    14   11   12 1    
    15   11   13 1    
    16   11   14 1    
    17   14   15 1    
    18   14   16 1    
    19   14   17 1    
    20   17   18 1    
    21   17   19 1    
    22   17   20 1    
@<TRIPOS>SUBSTRUCTURE
     1 ****        1 GROUP             0       ****    0 ROOT    
