@<TRIPOS>MOLECULE
heptane
23   22    1
SMALL
USER_CHARGES


@<TRIPOS>ATOM
      1 C1         -6.5383    0.9235    0.0505 C.3       1 ****       -0.1303 
      2 C2         -7.7160    1.8957   -0.1066 C.3       1 ****       -0.1718 
      3 H3         -6.7213    0.2726    0.9071 H         1 ****        0.0637 
      4 H4         -6.4996    0.2722   -0.8236 H         1 ****        0.0637 
      5 C5         -5.1910    1.6484    0.2284 C.3       1 ****       -0.1295 
      6 H6         -4.9886    2.2705   -0.6453 H         1 ****        0.0646 
      7 H7         -5.2690    2.3386    1.0704 H         1 ****        0.0646 
      8 C8         -3.9962    0.7071    0.4789 C.3       1 ****       -0.1303 
      9 H9         -3.1237    1.3144    0.7262 H         1 ****        0.0641 
     10 H10        -4.1960    0.1016    1.3640 H         1 ****        0.0641 
     11 C11        -3.6488   -0.2038   -0.7169 C.3       1 ****       -0.1295 
     12 H12        -4.4755   -0.8859   -0.9201 H         1 ****        0.0646 
     13 H13        -3.5442    0.4110   -1.6125 H         1 ****        0.0646 
     14 C14        -2.3553   -1.0199   -0.5295 C.3       1 ****       -0.1303 
     15 H15        -2.1238   -1.5310   -1.4655 H         1 ****        0.0637 
     16 H16        -1.5169   -0.3456   -0.3465 H         1 ****        0.0637 
     17 C17        -2.4314   -2.0643    0.5956 C.3       1 ****       -0.1718 
     18 H18        -2.5627   -1.5965    1.5715 H         1 ****        0.0587 
     19 H19        -3.2613   -2.7548    0.4408 H         1 ****        0.0587 
     20 H20        -1.5159   -2.6550    0.6400 H         1 ****        0.0587 
     21 H21        -7.8211    2.5375    0.7690 H         1 ****        0.0587 
     22 H22        -7.5865    2.5383   -0.9783 H         1 ****        0.0587 
     23 H23        -8.6546    1.3549   -0.2327 H         1 ****        0.0587 
@<TRIPOS>BOND
     1    1    2 1    
     2    1    3 1    
     3    1    4 1    
     4    1    5 1    
     5    2   21 1    
     6    2   22 1    
     7    2   23 1    
     8    5    6 1    
     9    5    7 1    
    10    5    8 1    
    11    8    9 1    
    12    8   10 1    
    13    8   11 1    
    14   11   12 1    
    15   11   13 1    
    16   11   14 1    
    17   14   15 1    
    18   14   16 1    
    19   14   17 1    
    20   17   18 1    
    21   17   19 1    
    22   17   20 1    
@<TRIPOS>SUBSTRUCTURE
     1 ****        1 GROUP             0       ****    0 ROOT    
