@<TRIPOS>MOLECULE
heptane
23   22    1
SMALL
USER_CHARGES


@<TRIPOS>ATOM
      1 C1         -6.3654    2.0245   -0.2737 C.3       1 ****       -0.1303 
      2 C2         -6.8053    1.4588    1.0846 C.3       1 ****       -0.1718 
      3 H3         -7.2551    2.3391   -0.8218 H         1 ****        0.0637 
      4 H4         -5.7836    2.9340   -0.1140 H         1 ****        0.0637 
      5 C5         -5.5651    1.0473   -1.1606 C.3       1 ****       -0.1295 
      6 H6         -6.1760    0.1767   -1.4058 H         1 ****        0.0646 
      7 H7         -5.3891    1.5450   -2.1159 H         1 ****        0.0646 
      8 C8         -4.1989    0.6021   -0.5930 C.3       1 ****       -0.1303 
      9 H9         -3.5098    0.4694   -1.4283 H         1 ****        0.0641 
     10 H10        -3.7690    1.4010    0.0137 H         1 ****        0.0641 
     11 C11        -4.2468   -0.7147    0.2108 C.3       1 ****       -0.1295 
     12 H12        -5.0016   -0.6439    0.9930 H         1 ****        0.0646 
     13 H13        -4.5791   -1.5263   -0.4388 H         1 ****        0.0646 
     14 C14        -2.9068   -1.1000    0.8668 C.3       1 ****       -0.1303 
     15 H15        -2.5780   -0.2980    1.5300 H         1 ****        0.0637 
     16 H16        -3.0674   -1.9670    1.5099 H         1 ****        0.0637 
     17 C17        -1.7886   -1.4313   -0.1345 C.3       1 ****       -0.1718 
     18 H18        -1.5142   -0.5634   -0.7344 H         1 ****        0.0587 
     19 H19        -0.8888   -1.7636    0.3842 H         1 ****        0.0587 
     20 H20        -2.0889   -2.2283   -0.8157 H         1 ****        0.0587 
     21 H21        -7.4705    2.1544    1.5973 H         1 ****        0.0587 
     22 H22        -7.3399    0.5152    0.9700 H         1 ****        0.0587 
     23 H23        -5.9518    1.2898    1.7412 H         1 ****        0.0587 
@<TRIPOS>BOND
     1    1    2 1    
     2    1    3 1    
     3    1    4 1    
     4    1    5 1    
     5    2   21 1    
     6    2   22 1    
     7    2   23 1    
     8    5    6 1    
     9    5    7 1    
    10    5    8 1    
    11    8    9 1    
    12    8   10 1    
    13    8   11 1    
    14   11   12 1    
    15   11   13 1    
    16   11   14 1    
    17   14   15 1    
    18   14   16 1    
    19   14   17 1    
    20   17   18 1    
    21   17   19 1    
    22   17   20 1    
@<TRIPOS>SUBSTRUCTURE
     1 ****        1 GROUP             0       ****    0 ROOT    
