@<TRIPOS>MOLECULE
heptane
23   22    1
SMALL
USER_CHARGES


@<TRIPOS>ATOM
      1 C1         -3.0730   -0.4513    0.5295 C.3       1 ****       -0.1303 
      2 C2         -1.7313   -1.1782    0.6975 C.3       1 ****       -0.1718 
      3 H3         -3.6597   -0.5609    1.4432 H         1 ****        0.0637 
      4 H4         -2.8784    0.6150    0.4111 H         1 ****        0.0637 
      5 C5         -3.8807   -0.9675   -0.6744 C.3       1 ****       -0.1295 
      6 H6         -3.3359   -0.7539   -1.5956 H         1 ****        0.0646 
      7 H7         -3.9427   -2.0557   -0.6165 H         1 ****        0.0646 
      8 C8         -5.3170   -0.4121   -0.7856 C.3       1 ****       -0.1303 
      9 H9         -5.7939   -0.9148   -1.6288 H         1 ****        0.0641 
     10 H10        -5.8996   -0.7162    0.0842 H         1 ****        0.0641 
     11 C11        -5.4268    1.1134   -1.0175 C.3       1 ****       -0.1295 
     12 H12        -4.5700    1.4533   -1.6018 H         1 ****        0.0646 
     13 H13        -6.2933    1.3123   -1.6509 H         1 ****        0.0646 
     14 C14        -5.5553    1.9764    0.2561 C.3       1 ****       -0.1303 
     15 H15        -4.7361    1.7739    0.9447 H         1 ****        0.0637 
     16 H16        -5.4472    3.0257   -0.0233 H         1 ****        0.0637 
     17 C17        -6.8929    1.8061    0.9948 C.3       1 ****       -0.1718 
     18 H18        -7.7385    2.0173    0.3392 H         1 ****        0.0587 
     19 H19        -7.0165    0.7959    1.3846 H         1 ****        0.0587 
     20 H20        -6.9569    2.4891    1.8424 H         1 ****        0.0587 
     21 H21        -1.8759   -2.2465    0.8631 H         1 ****        0.0587 
     22 H22        -1.1020   -1.0591   -0.1853 H         1 ****        0.0587 
     23 H23        -1.1786   -0.7850    1.5514 H         1 ****        0.0587 
@<TRIPOS>BOND
     1    1    2 1    
     2    1    3 1    
     3    1    4 1    
     4    1    5 1    
     5    2   21 1    
     6    2   22 1    
     7    2   23 1    
     8    5    6 1    
     9    5    7 1    
    10    5    8 1    
    11    8    9 1    
    12    8   10 1    
    13    8   11 1    
    14   11   12 1    
    15   11   13 1    
    16   11   14 1    
    17   14   15 1    
    18   14   16 1    
    19   14   17 1    
    20   17   18 1    
    21   17   19 1    
    22   17   20 1    
@<TRIPOS>SUBSTRUCTURE
     1 ****        1 GROUP             0       ****    0 ROOT    
