@<TRIPOS>MOLECULE
heptane
23   22    1
SMALL
USER_CHARGES


@<TRIPOS>ATOM
      1 C1         -3.1981   -1.0569   -0.4616 C.3       1 ****       -0.1303 
      2 C2         -2.6165   -2.3538    0.1182 C.3       1 ****       -0.1718 
      3 H3         -2.6057   -0.7511   -1.3256 H         1 ****        0.0637 
      4 H4         -4.2027   -1.2578   -0.8363 H         1 ****        0.0637 
      5 C5         -3.2413    0.0863    0.5694 C.3       1 ****       -0.1295 
      6 H6         -2.2405    0.2299    0.9804 H         1 ****        0.0646 
      7 H7         -3.8628   -0.2048    1.4174 H         1 ****        0.0646 
      8 C8         -3.7289    1.4357   -0.0003 C.3       1 ****       -0.1303 
      9 H9         -3.6543    2.1942    0.7808 H         1 ****        0.0641 
     10 H10        -3.0387    1.7582   -0.7817 H         1 ****        0.0641 
     11 C11        -5.1637    1.4460   -0.5696 C.3       1 ****       -0.1295 
     12 H12        -5.3616    2.4374   -0.9810 H         1 ****        0.0646 
     13 H13        -5.2316    0.7627   -1.4172 H         1 ****        0.0646 
     14 C14        -6.2558    1.1066    0.4619 C.3       1 ****       -0.1303 
     15 H15        -6.1107    0.0927    0.8372 H         1 ****        0.0637 
     16 H16        -6.1646    1.7676    1.3254 H         1 ****        0.0637 
     17 C17        -7.6726    1.2228   -0.1176 C.3       1 ****       -0.1718 
     18 H18        -7.8780    2.2358   -0.4656 H         1 ****        0.0587 
     19 H19        -7.8129    0.5450   -0.9606 H         1 ****        0.0587 
     20 H20        -8.4232    0.9741    0.6333 H         1 ****        0.0587 
     21 H21        -3.2083   -2.7115    0.9616 H         1 ****        0.0587 
     22 H22        -2.6013   -3.1447   -0.6324 H         1 ****        0.0587 
     23 H23        -1.5927   -2.2099    0.4656 H         1 ****        0.0587 
@<TRIPOS>BOND
     1    1    2 1    
     2    1    3 1    
     3    1    4 1    
     4    1    5 1    
     5    2   21 1    
     6    2   22 1    
     7    2   23 1    
     8    5    6 1    
     9    5    7 1    
    10    5    8 1    
    11    8    9 1    
    12    8   10 1    
    13    8   11 1    
    14   11   12 1    
    15   11   13 1    
    16   11   14 1    
    17   14   15 1    
    18   14   16 1    
    19   14   17 1    
    20   17   18 1    
    21   17   19 1    
    22   17   20 1    
@<TRIPOS>SUBSTRUCTURE
     1 ****        1 GROUP             0       ****    0 ROOT    
