@<TRIPOS>MOLECULE
heptane
23   22    1
SMALL
USER_CHARGES


@<TRIPOS>ATOM
      1 C1         -2.8099   -0.6124    0.5401 C.3       1 ****       -0.1303 
      2 C2         -3.7982   -1.7350    0.8992 C.3       1 ****       -0.1718 
      3 H3         -2.8986    0.2144    1.2463 H         1 ****        0.0637 
      4 H4         -1.8005   -1.0024    0.6824 H         1 ****        0.0637 
      5 C5         -2.9395   -0.0963   -0.9087 C.3       1 ****       -0.1295 
      6 H6         -3.2354   -0.9100   -1.5733 H         1 ****        0.0646 
      7 H7         -1.9440    0.1936   -1.2498 H         1 ****        0.0646 
      8 C8         -3.8666    1.1224   -1.1218 C.3       1 ****       -0.1303 
      9 H9         -3.4979    1.9755   -0.5493 H         1 ****        0.0641 
     10 H10        -3.7661    1.4243   -2.1659 H         1 ****        0.0641 
     11 C11        -5.3671    0.8953   -0.8380 C.3       1 ****       -0.1295 
     12 H12        -5.9484    1.4825   -1.5512 H         1 ****        0.0646 
     13 H13        -5.6325   -0.1435   -1.0407 H         1 ****        0.0646 
     14 C14        -5.8065    1.3034    0.5815 C.3       1 ****       -0.1303 
     15 H15        -5.2023    0.7941    1.3315 H         1 ****        0.0637 
     16 H16        -5.6211    2.3689    0.7269 H         1 ****        0.0637 
     17 C17        -7.2892    1.0094    0.8481 C.3       1 ****       -0.1718 
     18 H18        -7.9326    1.5427    0.1473 H         1 ****        0.0587 
     19 H19        -7.5044   -0.0559    0.7553 H         1 ****        0.0587 
     20 H20        -7.5733    1.3160    1.8553 H         1 ****        0.0587 
     21 H21        -3.6526   -2.6066    0.2601 H         1 ****        0.0587 
     22 H22        -3.6586   -2.0594    1.9307 H         1 ****        0.0587 
     23 H23        -4.8361   -1.4232    0.7944 H         1 ****        0.0587 
@<TRIPOS>BOND
     1    1    2 1    
     2    1    3 1    
     3    1    4 1    
     4    1    5 1    
     5    2   21 1    
     6    2   22 1    
     7    2   23 1    
     8    5    6 1    
     9    5    7 1    
    10    5    8 1    
    11    8    9 1    
    12    8   10 1    
    13    8   11 1    
    14   11   12 1    
    15   11   13 1    
    16   11   14 1    
    17   14   15 1    
    18   14   16 1    
    19   14   17 1    
    20   17   18 1    
    21   17   19 1    
    22   17   20 1    
@<TRIPOS>SUBSTRUCTURE
     1 ****        1 GROUP             0       ****    0 ROOT    
