@<TRIPOS>MOLECULE
heptane
23   22    1
SMALL
USER_CHARGES


@<TRIPOS>ATOM
      1 C1         -2.6474   -0.8890    0.6209 C.3       1 ****       -0.1303 
      2 C2         -3.1171   -2.1810   -0.0687 C.3       1 ****       -0.1718 
      3 H3         -3.1617   -0.7648    1.5755 H         1 ****        0.0637 
      4 H4         -1.5929   -1.0116    0.8744 H         1 ****        0.0637 
      5 C5         -2.8031    0.3838   -0.2398 C.3       1 ****       -0.1295 
      6 H6         -2.6425    0.1506   -1.2939 H         1 ****        0.0646 
      7 H7         -1.9952    1.0692    0.0223 H         1 ****        0.0646 
      8 C8         -4.1312    1.1508   -0.0624 C.3       1 ****       -0.1303 
      9 H9         -4.2292    1.4605    0.9791 H         1 ****        0.0641 
     10 H10        -4.0684    2.0752   -0.6392 H         1 ****        0.0641 
     11 C11        -5.3939    0.3798   -0.4948 C.3       1 ****       -0.1295 
     12 H12        -5.2239   -0.0628   -1.4778 H         1 ****        0.0646 
     13 H13        -5.5673   -0.4533    0.1872 H         1 ****        0.0646 
     14 C14        -6.6670    1.2455   -0.5585 C.3       1 ****       -0.1303 
     15 H15        -6.5167    2.0716   -1.2556 H         1 ****        0.0637 
     16 H16        -7.4775    0.6482   -0.9796 H         1 ****        0.0637 
     17 C17        -7.1172    1.7968    0.8038 C.3       1 ****       -0.1718 
     18 H18        -6.3789    2.4792    1.2255 H         1 ****        0.0587 
     19 H19        -8.0530    2.3486    0.7100 H         1 ****        0.0587 
     20 H20        -7.2795    0.9932    1.5230 H         1 ****        0.0587 
     21 H21        -4.1777   -2.1593   -0.3130 H         1 ****        0.0587 
     22 H22        -2.5691   -2.3550   -0.9954 H         1 ****        0.0587 
     23 H23        -2.9513   -3.0453    0.5752 H         1 ****        0.0587 
@<TRIPOS>BOND
     1    1    2 1    
     2    1    3 1    
     3    1    4 1    
     4    1    5 1    
     5    2   21 1    
     6    2   22 1    
     7    2   23 1    
     8    5    6 1    
     9    5    7 1    
    10    5    8 1    
    11    8    9 1    
    12    8   10 1    
    13    8   11 1    
    14   11   12 1    
    15   11   13 1    
    16   11   14 1    
    17   14   15 1    
    18   14   16 1    
    19   14   17 1    
    20   17   18 1    
    21   17   19 1    
    22   17   20 1    
@<TRIPOS>SUBSTRUCTURE
     1 ****        1 GROUP             0       ****    0 ROOT    
