@<TRIPOS>MOLECULE
heptane
23   22    1
SMALL
USER_CHARGES


@<TRIPOS>ATOM
      1 C1         -2.5710   -0.8174    0.3291 C.3       1 ****       -0.1303 
      2 C2         -2.4291   -2.3435    0.4146 C.3       1 ****       -0.1718 
      3 H3         -2.4631   -0.3903    1.3277 H         1 ****        0.0637 
      4 H4         -1.7492   -0.4130   -0.2645 H         1 ****        0.0637 
      5 C5         -3.9146   -0.3791   -0.2783 C.3       1 ****       -0.1295 
      6 H6         -4.0174   -0.8100   -1.2758 H         1 ****        0.0646 
      7 H7         -4.7278   -0.7993    0.3123 H         1 ****        0.0646 
      8 C8         -4.0539    1.1534   -0.3701 C.3       1 ****       -0.1303 
      9 H9         -3.9047    1.6069    0.6114 H         1 ****        0.0641 
     10 H10        -3.2382    1.5303   -0.9900 H         1 ****        0.0641 
     11 C11        -5.3910    1.6350   -0.9759 C.3       1 ****       -0.1295 
     12 H12        -5.2002    2.5592   -1.5243 H         1 ****        0.0646 
     13 H13        -5.7424    0.9284   -1.7299 H         1 ****        0.0646 
     14 C14        -6.5147    1.9277    0.0408 C.3       1 ****       -0.1303 
     15 H15        -6.1892    2.7065    0.7327 H         1 ****        0.0637 
     16 H16        -7.3647    2.3512   -0.4969 H         1 ****        0.0637 
     17 C17        -7.0027    0.7106    0.8401 C.3       1 ****       -0.1718 
     18 H18        -6.2417    0.3606    1.5374 H         1 ****        0.0587 
     19 H19        -7.8845    0.9623    1.4300 H         1 ****        0.0587 
     20 H20        -7.2708   -0.1177    0.1832 H         1 ****        0.0587 
     21 H21        -1.4685   -2.6228    0.8487 H         1 ****        0.0587 
     22 H22        -3.2111   -2.7806    1.0368 H         1 ****        0.0587 
     23 H23        -2.4911   -2.8041   -0.5721 H         1 ****        0.0587 
@<TRIPOS>BOND
     1    1    2 1    
     2    1    3 1    
     3    1    4 1    
     4    1    5 1    
     5    2   21 1    
     6    2   22 1    
     7    2   23 1    
     8    5    6 1    
     9    5    7 1    
    10    5    8 1    
    11    8    9 1    
    12    8   10 1    
    13    8   11 1    
    14   11   12 1    
    15   11   13 1    
    16   11   14 1    
    17   14   15 1    
    18   14   16 1    
    19   14   17 1    
    20   17   18 1    
    21   17   19 1    
    22   17   20 1    
@<TRIPOS>SUBSTRUCTURE
     1 ****        1 GROUP             0       ****    0 ROOT    
