@<TRIPOS>MOLECULE
heptane
23   22    1
SMALL
USER_CHARGES


@<TRIPOS>ATOM
      1 C1         -2.2194   -0.9069   -0.0111 C.3       1 ****       -0.1303 
      2 C2         -2.7256   -2.0881    0.8322 C.3       1 ****       -0.1718 
      3 H3         -1.7215   -0.1826    0.6358 H         1 ****        0.0637 
      4 H4         -1.4496   -1.2706   -0.6940 H         1 ****        0.0637 
      5 C5         -3.3174   -0.2033   -0.8319 C.3       1 ****       -0.1295 
      6 H6         -2.8418    0.5212   -1.4953 H         1 ****        0.0646 
      7 H7         -3.8042   -0.9287   -1.4864 H         1 ****        0.0646 
      8 C8         -4.3770    0.5195    0.0219 C.3       1 ****       -0.1303 
      9 H9         -4.8903   -0.2061    0.6530 H         1 ****        0.0641 
     10 H10        -3.8828    1.2182    0.6992 H         1 ****        0.0641 
     11 C11        -5.4114    1.2780   -0.8319 C.3       1 ****       -0.1295 
     12 H12        -4.8866    1.9678   -1.4953 H         1 ****        0.0646 
     13 H13        -5.9333    0.5776   -1.4864 H         1 ****        0.0646 
     14 C14        -6.4405    2.0791   -0.0111 C.3       1 ****       -0.1303 
     15 H15        -5.9232    2.7899    0.6357 H         1 ****        0.0637 
     16 H16        -7.0398    2.6837   -0.6939 H         1 ****        0.0637 
     17 C17        -7.3855    1.2084    0.8324 C.3       1 ****       -0.1718 
     18 H18        -7.9155    0.4833    0.2138 H         1 ****        0.0587 
     19 H19        -6.8467    0.6594    1.6048 H         1 ****        0.0587 
     20 H20        -8.1343    1.8220    1.3344 H         1 ****        0.0587 
     21 H21        -3.4227   -1.7630    1.6047 H         1 ****        0.0587 
     22 H22        -3.2330   -2.8292    0.2134 H         1 ****        0.0587 
     23 H23        -1.8977   -2.5900    1.3340 H         1 ****        0.0587 
@<TRIPOS>BOND
     1    1    2 1    
     2    1    3 1    
     3    1    4 1    
     4    1    5 1    
     5    2   21 1    
     6    2   22 1    
     7    2   23 1    
     8    5    6 1    
     9    5    7 1    
    10    5    8 1    
    11    8    9 1    
    12    8   10 1    
    13    8   11 1    
    14   11   12 1    
    15   11   13 1    
    16   11   14 1    
    17   14   15 1    
    18   14   16 1    
    19   14   17 1    
    20   17   18 1    
    21   17   19 1    
    22   17   20 1    
@<TRIPOS>SUBSTRUCTURE
     1 ****        1 GROUP             0       ****    0 ROOT    
