@<TRIPOS>MOLECULE
heptane
23   22    1
SMALL
USER_CHARGES


@<TRIPOS>ATOM
      1 C1         -2.1809   -0.8131   -0.0000 C.3       1 ****       -0.1303 
      2 C2         -1.6298   -2.2459   -0.0000 C.3       1 ****       -0.1718 
      3 H3         -1.7976   -0.2810    0.8725 H         1 ****        0.0637 
      4 H4         -1.7976   -0.2810   -0.8725 H         1 ****        0.0637 
      5 C5         -3.7185   -0.7686    0.0000 C.3       1 ****       -0.1295 
      6 H6         -4.0970   -1.3040   -0.8727 H         1 ****        0.0646 
      7 H7         -4.0970   -1.3040    0.8727 H         1 ****        0.0646 
      8 C8         -4.2727    0.6669    0.0000 C.3       1 ****       -0.1303 
      9 H9         -3.8941    1.2021    0.8728 H         1 ****        0.0641 
     10 H10        -3.8941    1.2021   -0.8728 H         1 ****        0.0641 
     11 C11        -5.8109    0.7116    0.0001 C.3       1 ****       -0.1295 
     12 H12        -6.1898    0.1764   -0.8726 H         1 ****        0.0646 
     13 H13        -6.1897    0.1764    0.8728 H         1 ****        0.0646 
     14 C14        -6.3648    2.1466    0.0001 C.3       1 ****       -0.1303 
     15 H15        -5.9906    2.6852    0.8726 H         1 ****        0.0637 
     16 H16        -5.9907    2.6852   -0.8724 H         1 ****        0.0637 
     17 C17        -7.8993    2.1892    0.0002 C.3       1 ****       -0.1718 
     18 H18        -8.2616    3.2178    0.0002 H         1 ****        0.0587 
     19 H19        -8.3103    1.6954   -0.8811 H         1 ****        0.0587 
     20 H20        -8.3102    1.6954    0.8817 H         1 ****        0.0587 
     21 H21        -1.9587   -2.7978   -0.8814 H         1 ****        0.0587 
     22 H22        -0.5393   -2.2450   -0.0000 H         1 ****        0.0587 
     23 H23        -1.9586   -2.7978    0.8814 H         1 ****        0.0587 
@<TRIPOS>BOND
     1    1    2 1    
     2    1    3 1    
     3    1    4 1    
     4    1    5 1    
     5    2   21 1    
     6    2   22 1    
     7    2   23 1    
     8    5    6 1    
     9    5    7 1    
    10    5    8 1    
    11    8    9 1    
    12    8   10 1    
    13    8   11 1    
    14   11   12 1    
    15   11   13 1    
    16   11   14 1    
    17   14   15 1    
    18   14   16 1    
    19   14   17 1    
    20   17   18 1    
    21   17   19 1    
    22   17   20 1    
@<TRIPOS>SUBSTRUCTURE
     1 ****        1 GROUP             0       ****    0 ROOT    
