@<TRIPOS>MOLECULE
heptane
23   22    1
SMALL
USER_CHARGES


@<TRIPOS>ATOM
      1 C1         -2.7015   -1.2142   -0.4517 C.3       1 ****       -0.1303 
      2 C2         -2.7984   -1.8383    0.9496 C.3       1 ****       -0.1718 
      3 H3         -1.7597   -0.6711   -0.5469 H         1 ****        0.0637 
      4 H4         -2.6543   -2.0181   -1.1884 H         1 ****        0.0637 
      5 C5         -3.8783   -0.2853   -0.8073 C.3       1 ****       -0.1295 
      6 H6         -3.7969   -0.0144   -1.8613 H         1 ****        0.0646 
      7 H7         -4.8109   -0.8417   -0.7226 H         1 ****        0.0646 
      8 C8         -3.9353    1.0079    0.0338 C.3       1 ****       -0.1303 
      9 H9         -4.0074    0.7736    1.0966 H         1 ****        0.0641 
     10 H10        -2.9837    1.5293   -0.0842 H         1 ****        0.0641 
     11 C11        -5.0749    1.9726   -0.3631 C.3       1 ****       -0.1295 
     12 H12        -4.7285    2.9935   -0.1927 H         1 ****        0.0646 
     13 H13        -5.2643    1.9159   -1.4365 H         1 ****        0.0646 
     14 C14        -6.3948    1.7987    0.4177 C.3       1 ****       -0.1303 
     15 H15        -7.0822    2.5901    0.1142 H         1 ****        0.0637 
     16 H16        -6.2146    1.9600    1.4819 H         1 ****        0.0637 
     17 C17        -7.0938    0.4454    0.2214 C.3       1 ****       -0.1718 
     18 H18        -6.5269   -0.3655    0.6788 H         1 ****        0.0587 
     19 H19        -8.0800    0.4473    0.6866 H         1 ****        0.0587 
     20 H20        -7.2281    0.2143   -0.8359 H         1 ****        0.0587 
     21 H21        -1.9810   -2.5397    1.1198 H         1 ****        0.0587 
     22 H22        -2.7444   -1.0824    1.7331 H         1 ****        0.0587 
     23 H23        -3.7332   -2.3855    1.0765 H         1 ****        0.0587 
@<TRIPOS>BOND
     1    1    2 1    
     2    1    3 1    
     3    1    4 1    
     4    1    5 1    
     5    2   21 1    
     6    2   22 1    
     7    2   23 1    
     8    5    6 1    
     9    5    7 1    
    10    5    8 1    
    11    8    9 1    
    12    8   10 1    
    13    8   11 1    
    14   11   12 1    
    15   11   13 1    
    16   11   14 1    
    17   14   15 1    
    18   14   16 1    
    19   14   17 1    
    20   17   18 1    
    21   17   19 1    
    22   17   20 1    
@<TRIPOS>SUBSTRUCTURE
     1 ****        1 GROUP             0       ****    0 ROOT    
