@<TRIPOS>MOLECULE
heptane
23   22    1
SMALL
USER_CHARGES


@<TRIPOS>ATOM
      1 C1         -6.3552    2.0083    0.0049 C.3       1 ****       -0.1303 
      2 C2         -7.7885    1.7465    0.4884 C.3       1 ****       -0.1718 
      3 H3         -6.3891    2.4917   -0.9730 H         1 ****        0.0637 
      4 H4         -5.8731    2.7192    0.6784 H         1 ****        0.0637 
      5 C5         -5.5136    0.7235   -0.0803 C.3       1 ****       -0.1295 
      6 H6         -5.4929    0.2456    0.9001 H         1 ****        0.0646 
      7 H7         -5.9991    0.0155   -0.7543 H         1 ****        0.0646 
      8 C8         -4.0741    0.9863   -0.5632 C.3       1 ****       -0.1303 
      9 H9         -4.1123    1.5173   -1.5160 H         1 ****        0.0641 
     10 H10        -3.5697    1.6610    0.1309 H         1 ****        0.0641 
     11 C11        -3.2267   -0.2879   -0.7500 C.3       1 ****       -0.1295 
     12 H12        -3.7253   -0.9576   -1.4530 H         1 ****        0.0646 
     13 H13        -2.2848   -0.0088   -1.2258 H         1 ****        0.0646 
     14 C14        -2.9206   -1.0410    0.5583 C.3       1 ****       -0.1303 
     15 H15        -2.4588   -0.3599    1.2751 H         1 ****        0.0637 
     16 H16        -3.8481   -1.3839    1.0185 H         1 ****        0.0637 
     17 C17        -1.9983   -2.2490    0.3423 C.3       1 ****       -0.1718 
     18 H18        -1.8011   -2.7630    1.2837 H         1 ****        0.0587 
     19 H19        -2.4453   -2.9725   -0.3406 H         1 ****        0.0587 
     20 H20        -1.0371   -1.9458   -0.0746 H         1 ****        0.0587 
     21 H21        -7.7966    1.3007    1.4838 H         1 ****        0.0587 
     22 H22        -8.3595    2.6742    0.5385 H         1 ****        0.0587 
     23 H23        -8.3172    1.0703   -0.1846 H         1 ****        0.0587 
@<TRIPOS>BOND
     1    1    2 1    
     2    1    3 1    
     3    1    4 1    
     4    1    5 1    
     5    2   21 1    
     6    2   22 1    
     7    2   23 1    
     8    5    6 1    
     9    5    7 1    
    10    5    8 1    
    11    8    9 1    
    12    8   10 1    
    13    8   11 1    
    14   11   12 1    
    15   11   13 1    
    16   11   14 1    
    17   14   15 1    
    18   14   16 1    
    19   14   17 1    
    20   17   18 1    
    21   17   19 1    
    22   17   20 1    
@<TRIPOS>SUBSTRUCTURE
     1 ****        1 GROUP             0       ****    0 ROOT    
