@<TRIPOS>MOLECULE
heptane
23   22    1
SMALL
USER_CHARGES


@<TRIPOS>ATOM
      1 C1         -2.6052   -0.8805    0.4589 C.3       1 ****       -0.1303 
      2 C2         -2.3388   -2.3495    0.1020 C.3       1 ****       -0.1718 
      3 H3         -2.7605   -0.7949    1.5358 H         1 ****        0.0637 
      4 H4         -1.7162   -0.2892    0.2324 H         1 ****        0.0637 
      5 C5         -3.8187   -0.2994   -0.2867 C.3       1 ****       -0.1295 
      6 H6         -3.6604   -0.3868   -1.3631 H         1 ****        0.0646 
      7 H7         -4.6992   -0.9013   -0.0577 H         1 ****        0.0646 
      8 C8         -4.0893    1.1737    0.0742 C.3       1 ****       -0.1303 
      9 H9         -4.2865    1.2614    1.1435 H         1 ****        0.0641 
     10 H10        -3.1816    1.7536   -0.1017 H         1 ****        0.0641 
     11 C11        -5.2399    1.8212   -0.7256 C.3       1 ****       -0.1295 
     12 H12        -5.2987    2.8788   -0.4627 H         1 ****        0.0646 
     13 H13        -4.9869    1.8017   -1.7871 H         1 ****        0.0646 
     14 C14        -6.6313    1.1825   -0.5333 C.3       1 ****       -0.1303 
     15 H15        -7.3429    1.6959   -1.1819 H         1 ****        0.0637 
     16 H16        -6.6204    0.1478   -0.8786 H         1 ****        0.0637 
     17 C17        -7.1539    1.2388    0.9109 C.3       1 ****       -0.1718 
     18 H18        -7.1777    2.2628    1.2853 H         1 ****        0.0587 
     19 H19        -8.1674    0.8413    0.9734 H         1 ****        0.0587 
     20 H20        -6.5327    0.6491    1.5856 H         1 ****        0.0587 
     21 H21        -2.1382   -2.4692   -0.9634 H         1 ****        0.0587 
     22 H22        -1.4743   -2.7330    0.6450 H         1 ****        0.0587 
     23 H23        -3.1922   -2.9803    0.3539 H         1 ****        0.0587 
@<TRIPOS>BOND
     1    1    2 1    
     2    1    3 1    
     3    1    4 1    
     4    1    5 1    
     5    2   21 1    
     6    2   22 1    
     7    2   23 1    
     8    5    6 1    
     9    5    7 1    
    10    5    8 1    
    11    8    9 1    
    12    8   10 1    
    13    8   11 1    
    14   11   12 1    
    15   11   13 1    
    16   11   14 1    
    17   14   15 1    
    18   14   16 1    
    19   14   17 1    
    20   17   18 1    
    21   17   19 1    
    22   17   20 1    
@<TRIPOS>SUBSTRUCTURE
     1 ****        1 GROUP             0       ****    0 ROOT    
