@<TRIPOS>MOLECULE
heptane
23   22    1
SMALL
USER_CHARGES


@<TRIPOS>ATOM
      1 C1         -2.5116   -0.8364   -0.5171 C.3       1 ****       -0.1303 
      2 C2         -2.0553   -1.0339    0.9371 C.3       1 ****       -0.1718 
      3 H3         -2.2779    0.1788   -0.8398 H         1 ****        0.0637 
      4 H4         -1.9169   -1.4872   -1.1603 H         1 ****        0.0637 
      5 C5         -4.0054   -1.1406   -0.7562 C.3       1 ****       -0.1295 
      6 H6         -4.2191   -1.0422   -1.8219 H         1 ****        0.0646 
      7 H7         -4.1920   -2.1898   -0.5208 H         1 ****        0.0646 
      8 C8         -5.0043   -0.2698    0.0358 C.3       1 ****       -0.1303 
      9 H9         -6.0090   -0.6399   -0.1713 H         1 ****        0.0641 
     10 H10        -4.8561   -0.4165    1.1065 H         1 ****        0.0641 
     11 C11        -4.9373    1.2347   -0.2988 C.3       1 ****       -0.1295 
     12 H12        -3.9353    1.6062   -0.0809 H         1 ****        0.0646 
     13 H13        -5.0822    1.3814   -1.3705 H         1 ****        0.0646 
     14 C14        -5.9466    2.0993    0.4812 C.3       1 ****       -0.1303 
     15 H15        -5.8025    1.9568    1.5536 H         1 ****        0.0637 
     16 H16        -5.7266    3.1513    0.2915 H         1 ****        0.0637 
     17 C17        -7.4165    1.8334    0.1184 C.3       1 ****       -0.1718 
     18 H18        -7.5911    1.9612   -0.9505 H         1 ****        0.0587 
     19 H19        -7.7237    0.8233    0.3897 H         1 ****        0.0587 
     20 H20        -8.0768    2.5239    0.6441 H         1 ****        0.0587 
     21 H21        -2.5448   -0.3297    1.6103 H         1 ****        0.0587 
     22 H22        -2.2746   -2.0425    1.2890 H         1 ****        0.0587 
     23 H23        -0.9801   -0.8783    1.0317 H         1 ****        0.0587 
@<TRIPOS>BOND
     1    1    2 1    
     2    1    3 1    
     3    1    4 1    
     4    1    5 1    
     5    2   21 1    
     6    2   22 1    
     7    2   23 1    
     8    5    6 1    
     9    5    7 1    
    10    5    8 1    
    11    8    9 1    
    12    8   10 1    
    13    8   11 1    
    14   11   12 1    
    15   11   13 1    
    16   11   14 1    
    17   14   15 1    
    18   14   16 1    
    19   14   17 1    
    20   17   18 1    
    21   17   19 1    
    22   17   20 1    
@<TRIPOS>SUBSTRUCTURE
     1 ****        1 GROUP             0       ****    0 ROOT    
