@<TRIPOS>MOLECULE
heptane
23   22    1
SMALL
USER_CHARGES


@<TRIPOS>ATOM
      1 C1         -2.5563   -0.6683    0.2242 C.3       1 ****       -0.1303 
      2 C2         -1.6753   -1.9252    0.2536 C.3       1 ****       -0.1718 
      3 H3         -2.7805   -0.3722    1.2496 H         1 ****        0.0637 
      4 H4         -1.9913    0.1560   -0.2142 H         1 ****        0.0637 
      5 C5         -3.8628   -0.8791   -0.5640 C.3       1 ****       -0.1295 
      6 H6         -3.6165   -1.2396   -1.5644 H         1 ****        0.0646 
      7 H7         -4.4495   -1.6742   -0.1004 H         1 ****        0.0646 
      8 C8         -4.7310    0.3872   -0.7040 C.3       1 ****       -0.1303 
      9 H9         -4.1445    1.1823   -1.1675 H         1 ****        0.0641 
     10 H10        -5.5372    0.1677   -1.4049 H         1 ****        0.0641 
     11 C11        -5.3348    0.8906    0.6237 C.3       1 ****       -0.1295 
     12 H12        -5.9177    0.0938    1.0891 H         1 ****        0.0646 
     13 H13        -4.5297    1.1161    1.3239 H         1 ****        0.0646 
     14 C14        -6.2094    2.1513    0.4801 C.3       1 ****       -0.1303 
     15 H15        -6.4685    2.5131    1.4766 H         1 ****        0.0637 
     16 H16        -5.6293    2.9517    0.0176 H         1 ****        0.0637 
     17 C17        -7.5074    1.9304   -0.3132 C.3       1 ****       -0.1718 
     18 H18        -7.3070    1.6724   -1.3532 H         1 ****        0.0587 
     19 H19        -8.1070    1.1298    0.1213 H         1 ****        0.0587 
     20 H20        -8.1184    2.8336   -0.3167 H         1 ****        0.0587 
     21 H21        -2.1941   -2.7626    0.7219 H         1 ****        0.0587 
     22 H22        -1.3864   -2.2318   -0.7524 H         1 ****        0.0587 
     23 H23        -0.7598   -1.7474    0.8189 H         1 ****        0.0587 
@<TRIPOS>BOND
     1    1    2 1    
     2    1    3 1    
     3    1    4 1    
     4    1    5 1    
     5    2   21 1    
     6    2   22 1    
     7    2   23 1    
     8    5    6 1    
     9    5    7 1    
    10    5    8 1    
    11    8    9 1    
    12    8   10 1    
    13    8   11 1    
    14   11   12 1    
    15   11   13 1    
    16   11   14 1    
    17   14   15 1    
    18   14   16 1    
    19   14   17 1    
    20   17   18 1    
    21   17   19 1    
    22   17   20 1    
@<TRIPOS>SUBSTRUCTURE
     1 ****        1 GROUP             0       ****    0 ROOT    
