@<TRIPOS>MOLECULE
heptane
23   22    1
SMALL
USER_CHARGES


@<TRIPOS>ATOM
      1 C1         -2.6041   -0.2149   -0.3278 C.3       1 ****       -0.1303 
      2 C2         -2.1369   -1.3895    0.5461 C.3       1 ****       -0.1718 
      3 H3         -2.6066    0.7026    0.2623 H         1 ****        0.0637 
      4 H4         -1.8673   -0.0506   -1.1158 H         1 ****        0.0637 
      5 C5         -3.9858   -0.4266   -0.9804 C.3       1 ****       -0.1295 
      6 H6         -4.1939    0.4100   -1.6488 H         1 ****        0.0646 
      7 H7         -3.9389   -1.3027   -1.6293 H         1 ****        0.0646 
      8 C8         -5.1679   -0.5985   -0.0001 C.3       1 ****       -0.1303 
      9 H9         -6.0789   -0.7696   -0.5752 H         1 ****        0.0641 
     10 H10        -5.0261   -1.5146    0.5747 H         1 ****        0.0641 
     11 C11        -5.3996    0.5731    0.9804 C.3       1 ****       -0.1295 
     12 H12        -6.2414    0.3255    1.6292 H         1 ****        0.0646 
     13 H13        -4.5415    0.6553    1.6491 H         1 ****        0.0646 
     14 C14        -5.6598    1.9467    0.3282 C.3       1 ****       -0.1303 
     15 H15        -5.7503    2.6959    1.1164 H         1 ****        0.0637 
     16 H16        -4.7938    2.2499   -0.2618 H         1 ****        0.0637 
     17 C17        -6.9228    1.9964   -0.5459 C.3       1 ****       -0.1718 
     18 H18        -7.8083    1.7022    0.0186 H         1 ****        0.0587 
     19 H19        -7.0936    3.0043   -0.9254 H         1 ****        0.0587 
     20 H20        -6.8400    1.3348   -1.4085 H         1 ****        0.0587 
     21 H21        -2.7886   -1.5319    1.4084 H         1 ****        0.0587 
     22 H22        -2.1191   -2.3222   -0.0187 H         1 ****        0.0587 
     23 H23        -1.1298   -1.2149    0.9259 H         1 ****        0.0587 
@<TRIPOS>BOND
     1    1    2 1    
     2    1    3 1    
     3    1    4 1    
     4    1    5 1    
     5    2   21 1    
     6    2   22 1    
     7    2   23 1    
     8    5    6 1    
     9    5    7 1    
    10    5    8 1    
    11    8    9 1    
    12    8   10 1    
    13    8   11 1    
    14   11   12 1    
    15   11   13 1    
    16   11   14 1    
    17   14   15 1    
    18   14   16 1    
    19   14   17 1    
    20   17   18 1    
    21   17   19 1    
    22   17   20 1    
@<TRIPOS>SUBSTRUCTURE
     1 ****        1 GROUP             0       ****    0 ROOT    
