@<TRIPOS>MOLECULE
heptane
23   22    1
SMALL
USER_CHARGES


@<TRIPOS>ATOM
      1 C1         -3.3220   -0.8824    0.4981 C.3       1 ****       -0.1303 
      2 C2         -3.0375   -2.3330    0.0848 C.3       1 ****       -0.1718 
      3 H3         -4.2110   -0.8636    1.1296 H         1 ****        0.0637 
      4 H4         -2.5021   -0.5168    1.1186 H         1 ****        0.0637 
      5 C5         -3.5121    0.0518   -0.7116 C.3       1 ****       -0.1295 
      6 H6         -2.6224   -0.0052   -1.3412 H         1 ****        0.0646 
      7 H7         -4.3277   -0.3039   -1.3412 H         1 ****        0.0646 
      8 C8         -3.7453    1.5298   -0.3394 C.3       1 ****       -0.1303 
      9 H9         -2.8648    1.8959    0.1915 H         1 ****        0.0641 
     10 H10        -3.7899    2.1181   -1.2575 H         1 ****        0.0641 
     11 C11        -4.9972    1.8425    0.5122 C.3       1 ****       -0.1295 
     12 H12        -4.9343    1.3482    1.4827 H         1 ****        0.0646 
     13 H13        -4.9677    2.9085    0.7446 H         1 ****        0.0646 
     14 C14        -6.3560    1.5439   -0.1587 C.3       1 ****       -0.1303 
     15 H15        -7.0898    2.2631    0.2094 H         1 ****        0.0637 
     16 H16        -6.2936    1.7196   -1.2339 H         1 ****        0.0637 
     17 C17        -6.9067    0.1343    0.1150 C.3       1 ****       -0.1718 
     18 H18        -6.2668   -0.6476   -0.2899 H         1 ****        0.0587 
     19 H19        -7.0132   -0.0474    1.1850 H         1 ****        0.0587 
     20 H20        -7.8913    0.0096   -0.3366 H         1 ****        0.0587 
     21 H21        -3.8578   -2.7451   -0.5041 H         1 ****        0.0587 
     22 H22        -2.1279   -2.4051   -0.5126 H         1 ****        0.0587 
     23 H23        -2.9081   -2.9703    0.9603 H         1 ****        0.0587 
@<TRIPOS>BOND
     1    1    2 1    
     2    1    3 1    
     3    1    4 1    
     4    1    5 1    
     5    2   21 1    
     6    2   22 1    
     7    2   23 1    
     8    5    6 1    
     9    5    7 1    
    10    5    8 1    
    11    8    9 1    
    12    8   10 1    
    13    8   11 1    
    14   11   12 1    
    15   11   13 1    
    16   11   14 1    
    17   14   15 1    
    18   14   16 1    
    19   14   17 1    
    20   17   18 1    
    21   17   19 1    
    22   17   20 1    
@<TRIPOS>SUBSTRUCTURE
     1 ****        1 GROUP             0       ****    0 ROOT    
