@<TRIPOS>MOLECULE
heptane
23   22    1
SMALL
USER_CHARGES


@<TRIPOS>ATOM
      1 C1         -2.6198   -0.8704    0.4701 C.3       1 ****       -0.1303 
      2 C2         -3.3396   -2.1900    0.1501 C.3       1 ****       -0.1718 
      3 H3         -2.9157   -0.5234    1.4610 H         1 ****        0.0637 
      4 H4         -1.5483   -1.0651    0.5398 H         1 ****        0.0637 
      5 C5         -2.8515    0.2431   -0.5726 C.3       1 ****       -0.1295 
      6 H6         -2.2474    1.1109   -0.3021 H         1 ****        0.0646 
      7 H7         -2.4623   -0.0899   -1.5363 H         1 ****        0.0646 
      8 C8         -4.3170    0.6915   -0.7567 C.3       1 ****       -0.1303 
      9 H9         -4.3516    1.4349   -1.5549 H         1 ****        0.0641 
     10 H10        -4.9120   -0.1485   -1.1162 H         1 ****        0.0641 
     11 C11        -4.9583    1.2897    0.5123 C.3       1 ****       -0.1295 
     12 H12        -5.0118    0.5316    1.2951 H         1 ****        0.0646 
     13 H13        -4.3080    2.0745    0.9023 H         1 ****        0.0646 
     14 C14        -6.3625    1.8823    0.2868 C.3       1 ****       -0.1303 
     15 H15        -6.6790    2.3920    1.1984 H         1 ****        0.0637 
     16 H16        -6.3180    2.6547   -0.4829 H         1 ****        0.0637 
     17 C17        -7.4282    0.8405   -0.0895 C.3       1 ****       -0.1718 
     18 H18        -7.2114    0.3707   -1.0490 H         1 ****        0.0587 
     19 H19        -7.4953    0.0524    0.6614 H         1 ****        0.0587 
     20 H20        -8.4124    1.3029   -0.1701 H         1 ****        0.0587 
     21 H21        -4.4233   -2.0717    0.1739 H         1 ****        0.0587 
     22 H22        -3.0645   -2.5637   -0.8368 H         1 ****        0.0587 
     23 H23        -3.0818   -2.9600    0.8778 H         1 ****        0.0587 
@<TRIPOS>BOND
     1    1    2 1    
     2    1    3 1    
     3    1    4 1    
     4    1    5 1    
     5    2   21 1    
     6    2   22 1    
     7    2   23 1    
     8    5    6 1    
     9    5    7 1    
    10    5    8 1    
    11    8    9 1    
    12    8   10 1    
    13    8   11 1    
    14   11   12 1    
    15   11   13 1    
    16   11   14 1    
    17   14   15 1    
    18   14   16 1    
    19   14   17 1    
    20   17   18 1    
    21   17   19 1    
    22   17   20 1    
@<TRIPOS>SUBSTRUCTURE
     1 ****        1 GROUP             0       ****    0 ROOT    
