@<TRIPOS>MOLECULE
heptane
23   22    1
SMALL
USER_CHARGES


@<TRIPOS>ATOM
      1 C1         -2.2344   -1.1024   -0.5020 C.3       1 ****       -0.1303 
      2 C2         -1.9208   -1.5573    0.9324 C.3       1 ****       -0.1718 
      3 H3         -1.6338   -0.2247   -0.7468 H         1 ****        0.0637 
      4 H4         -1.9120   -1.8827   -1.1936 H         1 ****        0.0637 
      5 C5         -3.7242   -0.8008   -0.7549 C.3       1 ****       -0.1295 
      6 H6         -3.8645   -0.6233   -1.8227 H         1 ****        0.0646 
      7 H7         -4.3196   -1.6854   -0.5215 H         1 ****        0.0646 
      8 C8         -4.2638    0.4111    0.0287 C.3       1 ****       -0.1303 
      9 H9         -4.1779    0.2249    1.1001 H         1 ****        0.0641 
     10 H10        -3.6425    1.2839   -0.1798 H         1 ****        0.0641 
     11 C11        -5.7299    0.7334   -0.3105 C.3       1 ****       -0.1295 
     12 H12        -5.8216    0.9252   -1.3812 H         1 ****        0.0646 
     13 H13        -6.3505   -0.1405   -0.1040 H         1 ****        0.0646 
     14 C14        -6.2706    1.9415    0.4732 C.3       1 ****       -0.1303 
     15 H15        -6.1836    1.7535    1.5448 H         1 ****        0.0637 
     16 H16        -5.6542    2.8186    0.2680 H         1 ****        0.0637 
     17 C17        -7.7331    2.2613    0.1336 C.3       1 ****       -0.1718 
     18 H18        -8.3876    1.4201    0.3653 H         1 ****        0.0587 
     19 H19        -8.0875    3.1208    0.7036 H         1 ****        0.0587 
     20 H20        -7.8530    2.4959   -0.9248 H         1 ****        0.0587 
     21 H21        -2.1280   -0.7717    1.6592 H         1 ****        0.0587 
     22 H22        -2.5091   -2.4331    1.2088 H         1 ****        0.0587 
     23 H23        -0.8681   -1.8228    1.0341 H         1 ****        0.0587 
@<TRIPOS>BOND
     1    1    2 1    
     2    1    3 1    
     3    1    4 1    
     4    1    5 1    
     5    2   21 1    
     6    2   22 1    
     7    2   23 1    
     8    5    6 1    
     9    5    7 1    
    10    5    8 1    
    11    8    9 1    
    12    8   10 1    
    13    8   11 1    
    14   11   12 1    
    15   11   13 1    
    16   11   14 1    
    17   14   15 1    
    18   14   16 1    
    19   14   17 1    
    20   17   18 1    
    21   17   19 1    
    22   17   20 1    
@<TRIPOS>SUBSTRUCTURE
     1 ****        1 GROUP             0       ****    0 ROOT    
