@<TRIPOS>MOLECULE
heptane
23   22    1
SMALL
USER_CHARGES


@<TRIPOS>ATOM
      1 C1         -6.4010    0.8066   -0.4608 C.3       1 ****       -0.1303 
      2 C2         -6.8208    0.8461    1.0174 C.3       1 ****       -0.1718 
      3 H3         -6.1463   -0.2122   -0.7530 H         1 ****        0.0637 
      4 H4         -7.2656    1.0692   -1.0726 H         1 ****        0.0637 
      5 C5         -5.2447    1.7632   -0.8122 C.3       1 ****       -0.1295 
      6 H6         -5.0752    1.7272   -1.8897 H         1 ****        0.0646 
      7 H7         -5.5678    2.7856   -0.6083 H         1 ****        0.0646 
      8 C8         -3.9006    1.5196   -0.0883 C.3       1 ****       -0.1303 
      9 H9         -3.2294    2.3296   -0.3792 H         1 ****        0.0641 
     10 H10        -4.0197    1.6354    0.9900 H         1 ****        0.0641 
     11 C11        -3.1971    0.1834   -0.4155 C.3       1 ****       -0.1295 
     12 H12        -3.4115   -0.1096   -1.4448 H         1 ****        0.0646 
     13 H13        -2.1184    0.3464   -0.3803 H         1 ****        0.0646 
     14 C14        -3.5348   -0.9700    0.5488 C.3       1 ****       -0.1303 
     15 H15        -3.2956   -0.6729    1.5713 H         1 ****        0.0637 
     16 H16        -4.6038   -1.1771    0.5408 H         1 ****        0.0637 
     17 C17        -2.7779   -2.2622    0.2110 C.3       1 ****       -0.1718 
     18 H18        -3.0329   -3.0585    0.9110 H         1 ****        0.0587 
     19 H19        -3.0229   -2.6143   -0.7918 H         1 ****        0.0587 
     20 H20        -1.6983   -2.1149    0.2589 H         1 ****        0.0587 
     21 H21        -7.6738    0.1910    1.1968 H         1 ****        0.0587 
     22 H22        -6.0158    0.5184    1.6751 H         1 ****        0.0587 
     23 H23        -7.1095    1.8532    1.3203 H         1 ****        0.0587 
@<TRIPOS>BOND
     1    1    2 1    
     2    1    3 1    
     3    1    4 1    
     4    1    5 1    
     5    2   21 1    
     6    2   22 1    
     7    2   23 1    
     8    5    6 1    
     9    5    7 1    
    10    5    8 1    
    11    8    9 1    
    12    8   10 1    
    13    8   11 1    
    14   11   12 1    
    15   11   13 1    
    16   11   14 1    
    17   14   15 1    
    18   14   16 1    
    19   14   17 1    
    20   17   18 1    
    21   17   19 1    
    22   17   20 1    
@<TRIPOS>SUBSTRUCTURE
     1 ****        1 GROUP             0       ****    0 ROOT    
