@<TRIPOS>MOLECULE
heptane
23   22    1
SMALL
USER_CHARGES


@<TRIPOS>ATOM
      1 C1         -6.0549    1.3333    0.8441 C.3       1 ****       -0.1303 
      2 C2         -7.3505    1.1353    0.0417 C.3       1 ****       -0.1718 
      3 H3         -6.2392    2.0674    1.6301 H         1 ****        0.0637 
      4 H4         -5.8014    0.4090    1.3650 H         1 ****        0.0637 
      5 C5         -4.8561    1.8076   -0.0032 C.3       1 ****       -0.1295 
      6 H6         -4.0108    2.0032    0.6579 H         1 ****        0.0646 
      7 H7         -5.0987    2.7754   -0.4455 H         1 ****        0.0646 
      8 C8         -4.4111    0.8467   -1.1290 C.3       1 ****       -0.1303 
      9 H9         -5.2084    0.7695   -1.8695 H         1 ****        0.0641 
     10 H10        -3.5722    1.2971   -1.6622 H         1 ****        0.0641 
     11 C11        -4.0101   -0.5738   -0.6779 C.3       1 ****       -0.1295 
     12 H12        -3.7725   -1.1616   -1.5661 H         1 ****        0.0646 
     13 H13        -4.8668   -1.0719   -0.2216 H         1 ****        0.0646 
     14 C14        -2.8091   -0.6151    0.2851 C.3       1 ****       -0.1303 
     15 H15        -3.0515   -0.0810    1.2049 H         1 ****        0.0637 
     16 H16        -1.9629   -0.0885   -0.1594 H         1 ****        0.0637 
     17 C17        -2.3851   -2.0472    0.6396 C.3       1 ****       -0.1718 
     18 H18        -3.1964   -2.5928    1.1231 H         1 ****        0.0587 
     19 H19        -2.0900   -2.6060   -0.2494 H         1 ****        0.0587 
     20 H20        -1.5360   -2.0451    1.3239 H         1 ****        0.0587 
     21 H21        -8.1776    0.8657    0.6991 H         1 ****        0.0587 
     22 H22        -7.6332    2.0460   -0.4874 H         1 ****        0.0587 
     23 H23        -7.2482    0.3377   -0.6946 H         1 ****        0.0587 
@<TRIPOS>BOND
     1    1    2 1    
     2    1    3 1    
     3    1    4 1    
     4    1    5 1    
     5    2   21 1    
     6    2   22 1    
     7    2   23 1    
     8    5    6 1    
     9    5    7 1    
    10    5    8 1    
    11    8    9 1    
    12    8   10 1    
    13    8   11 1    
    14   11   12 1    
    15   11   13 1    
    16   11   14 1    
    17   14   15 1    
    18   14   16 1    
    19   14   17 1    
    20   17   18 1    
    21   17   19 1    
    22   17   20 1    
@<TRIPOS>SUBSTRUCTURE
     1 ****        1 GROUP             0       ****    0 ROOT    
