@<TRIPOS>MOLECULE
heptane
23   22    1
SMALL
USER_CHARGES


@<TRIPOS>ATOM
      1 C1         -3.0887   -0.5049    0.7751 C.3       1 ****       -0.1303 
      2 C2         -3.3244   -2.0116    0.5800 C.3       1 ****       -0.1718 
      3 H3         -3.8287   -0.1106    1.4695 H         1 ****        0.0637 
      4 H4         -2.1267   -0.3690    1.2719 H         1 ****        0.0637 
      5 C5         -3.0798    0.3070   -0.5378 C.3       1 ****       -0.1295 
      6 H6         -2.7095    1.3140   -0.3382 H         1 ****        0.0646 
      7 H7         -2.3370   -0.1372   -1.2029 H         1 ****        0.0646 
      8 C8         -4.4285    0.3970   -1.2907 C.3       1 ****       -0.1303 
      9 H9         -4.2065    0.4776   -2.3562 H         1 ****        0.0641 
     10 H10        -4.9910   -0.5319   -1.2008 H         1 ****        0.0641 
     11 C11        -5.3219    1.6043   -0.9240 C.3       1 ****       -0.1295 
     12 H12        -4.7663    2.5242   -1.1142 H         1 ****        0.0646 
     13 H13        -6.1656    1.6327   -1.6157 H         1 ****        0.0646 
     14 C14        -5.8707    1.6458    0.5156 C.3       1 ****       -0.1303 
     15 H15        -6.4524    2.5609    0.6380 H         1 ****        0.0637 
     16 H16        -5.0499    1.7352    1.2271 H         1 ****        0.0637 
     17 C17        -6.7630    0.4491    0.8822 C.3       1 ****       -0.1718 
     18 H18        -6.2103   -0.4900    0.8547 H         1 ****        0.0587 
     19 H19        -7.1662    0.5589    1.8894 H         1 ****        0.0587 
     20 H20        -7.6068    0.3594    0.1973 H         1 ****        0.0587 
     21 H21        -3.2436   -2.5422    1.5292 H         1 ****        0.0587 
     22 H22        -4.3159   -2.2195    0.1783 H         1 ****        0.0587 
     23 H23        -2.5902   -2.4437   -0.1009 H         1 ****        0.0587 
@<TRIPOS>BOND
     1    1    2 1    
     2    1    3 1    
     3    1    4 1    
     4    1    5 1    
     5    2   21 1    
     6    2   22 1    
     7    2   23 1    
     8    5    6 1    
     9    5    7 1    
    10    5    8 1    
    11    8    9 1    
    12    8   10 1    
    13    8   11 1    
    14   11   12 1    
    15   11   13 1    
    16   11   14 1    
    17   14   15 1    
    18   14   16 1    
    19   14   17 1    
    20   17   18 1    
    21   17   19 1    
    22   17   20 1    
@<TRIPOS>SUBSTRUCTURE
     1 ****        1 GROUP             0       ****    0 ROOT    
