@<TRIPOS>MOLECULE
heptane
23   22    1
SMALL
USER_CHARGES


@<TRIPOS>ATOM
      1 C1         -6.4140    1.5891    0.5466 C.3       1 ****       -0.1303 
      2 C2         -7.0142    0.9193   -0.6985 C.3       1 ****       -0.1718 
      3 H3         -6.3153    2.6612    0.3682 H         1 ****        0.0637 
      4 H4         -7.1253    1.4934    1.3687 H         1 ****        0.0637 
      5 C5         -5.0568    1.0121    1.0011 C.3       1 ****       -0.1295 
      6 H6         -4.7852    1.5057    1.9357 H         1 ****        0.0646 
      7 H7         -5.1759   -0.0399    1.2607 H         1 ****        0.0646 
      8 C8         -3.8934    1.2031   -0.0001 C.3       1 ****       -0.1303 
      9 H9         -4.0500    2.1322   -0.5511 H         1 ****        0.0641 
     10 H10        -2.9651    1.3648    0.5507 H         1 ****        0.0641 
     11 C11        -3.6863    0.0423   -1.0011 C.3       1 ****       -0.1295 
     12 H12        -4.6387   -0.4203   -1.2605 H         1 ****        0.0646 
     13 H13        -3.3114    0.4626   -1.9359 H         1 ****        0.0646 
     14 C14        -2.6903   -1.0453   -0.5464 C.3       1 ****       -0.1303 
     15 H15        -2.5438   -1.7480   -1.3684 H         1 ****        0.0637 
     16 H16        -1.7122   -0.5951   -0.3682 H         1 ****        0.0637 
     17 C17        -3.1219   -1.8340    0.6989 C.3       1 ****       -0.1718 
     18 H18        -3.1518   -1.1979    1.5837 H         1 ****        0.0587 
     19 H19        -4.1095   -2.2773    0.5666 H         1 ****        0.0587 
     20 H20        -2.4224   -2.6440    0.9076 H         1 ****        0.0587 
     21 H21        -6.4045    1.1027   -1.5834 H         1 ****        0.0587 
     22 H22        -7.1034   -0.1595   -0.5660 H         1 ****        0.0587 
     23 H23        -8.0110    1.3092   -0.9072 H         1 ****        0.0587 
@<TRIPOS>BOND
     1    1    2 1    
     2    1    3 1    
     3    1    4 1    
     4    1    5 1    
     5    2   21 1    
     6    2   22 1    
     7    2   23 1    
     8    5    6 1    
     9    5    7 1    
    10    5    8 1    
    11    8    9 1    
    12    8   10 1    
    13    8   11 1    
    14   11   12 1    
    15   11   13 1    
    16   11   14 1    
    17   14   15 1    
    18   14   16 1    
    19   14   17 1    
    20   17   18 1    
    21   17   19 1    
    22   17   20 1    
@<TRIPOS>SUBSTRUCTURE
     1 ****        1 GROUP             0       ****    0 ROOT    
